
  CDK     06141809482D

131138  0  0  1  0  0  0  0  0999 V2000
  -13.8456    5.3536    0.0000 C   0  0  0  0  0  0  0  0  0  0  0  0
  -12.7275    6.3535    0.0000 C   0  0  0  0  0  0  0  0  0  0  0  0
  -13.0344    7.8218    0.0000 C   0  0  0  0  0  0  0  0  0  0  0  0
  -11.3025    5.8851    0.0000 C   0  0  0  0  0  0  0  0  0  0  0  0
  -10.9956    4.4169    0.0000 C   0  0  1  0  0  0  0  0  0  0  0  0
  -12.1138    3.4170    0.0000 N   0  0  0  0  0  0  0  0  0  0  0  0
  -11.8069    1.9487    0.0000 C   0  0  0  0  0  0  0  0  0  0  0  0
  -10.3819    1.4803    0.0000 O   0  0  0  0  0  0  0  0  0  0  0  0
  -12.9250    0.9488    0.0000 C   0  0  0  0  0  0  0  0  0  0  0  0
  -12.6181   -0.5195    0.0000 N   0  0  0  0  0  0  0  0  0  0  0  0
  -13.7362   -1.5194    0.0000 C   0  0  0  0  0  0  0  0  0  0  0  0
  -15.1612   -1.0510    0.0000 O   0  0  0  0  0  0  0  0  0  0  0  0
  -13.4293   -2.9877    0.0000 C   0  0  1  0  0  0  0  0  0  0  0  0
  -14.5475   -3.9876    0.0000 N   0  0  0  0  0  0  0  0  0  0  0  0
  -14.2406   -5.4558    0.0000 C   0  0  0  0  0  0  0  0  0  0  0  0
  -15.3587   -6.4557    0.0000 O   0  0  0  0  0  0  0  0  0  0  0  0
  -12.0043   -3.4560    0.0000 C   0  0  0  0  0  0  0  0  0  0  0  0
  -11.6975   -4.9243    0.0000 C   0  0  0  0  0  0  0  0  0  0  0  0
  -10.8862   -2.4561    0.0000 C   0  0  0  0  0  0  0  0  0  0  0  0
   -9.5706    3.9485    0.0000 C   0  0  0  0  0  0  0  0  0  0  0  0
   -9.2638    2.4802    0.0000 O   0  0  0  0  0  0  0  0  0  0  0  0
   -8.4525    4.9484    0.0000 N   0  0  0  0  0  0  0  0  0  0  0  0
   -7.0275    4.4800    0.0000 C   0  0  1  0  0  0  0  0  0  0  0  0
   -6.7206    3.0118    0.0000 C   0  0  0  0  0  0  0  0  0  0  0  0
   -5.9094    5.4799    0.0000 C   0  0  0  0  0  0  0  0  0  0  0  0
   -6.2163    6.9482    0.0000 O   0  0  0  0  0  0  0  0  0  0  0  0
   -4.4844    5.0116    0.0000 N   0  0  0  0  0  0  0  0  0  0  0  0
   -3.3663    6.0115    0.0000 C   0  0  2  0  0  0  0  0  0  0  0  0
   -3.6732    7.4798    0.0000 C   0  0  0  0  0  0  0  0  0  0  0  0
   -2.5550    8.4797    0.0000 C   0  0  0  0  0  0  0  0  0  0  0  0
   -5.0982    7.9481    0.0000 C   0  0  0  0  0  0  0  0  0  0  0  0
   -1.9413    5.5431    0.0000 C   0  0  0  0  0  0  0  0  0  0  0  0
   -1.6344    4.0748    0.0000 O   0  0  0  0  0  0  0  0  0  0  0  0
   -0.8231    6.5430    0.0000 N   0  0  0  0  0  0  0  0  0  0  0  0
    0.6019    6.0746    0.0000 C   0  0  1  0  0  0  0  0  0  0  0  0
    0.9087    4.6064    0.0000 C   0  0  0  0  0  0  0  0  0  0  0  0
    2.3337    4.1380    0.0000 C   0  0  0  0  0  0  0  0  0  0  0  0
   -0.2094    3.6065    0.0000 C   0  0  0  0  0  0  0  0  0  0  0  0
    1.7200    7.0746    0.0000 C   0  0  0  0  0  0  0  0  0  0  0  0
    1.4131    8.5428    0.0000 O   0  0  0  0  0  0  0  0  0  0  0  0
    3.1450    6.6062    0.0000 N   0  0  0  0  0  0  0  0  0  0  0  0
    4.2631    7.6061    0.0000 C   0  0  2  0  0  0  0  0  0  0  0  0
    3.9562    9.0744    0.0000 C   0  0  0  0  0  0  0  0  0  0  0  0
    5.0743   10.0743    0.0000 C   0  0  0  0  0  0  0  0  0  0  0  0
    2.5312    9.5427    0.0000 C   0  0  0  0  0  0  0  0  0  0  0  0
    5.6881    7.1377    0.0000 C   0  0  0  0  0  0  0  0  0  0  0  0
    5.9950    5.6695    0.0000 O   0  0  0  0  0  0  0  0  0  0  0  0
    6.8062    8.1376    0.0000 N   0  0  0  0  0  0  0  0  0  0  0  0
    8.2312    7.6693    0.0000 C   0  0  1  0  0  0  0  0  0  0  0  0
    9.3493    8.6692    0.0000 C   0  0  0  0  0  0  0  0  0  0  0  0
    9.0425   10.1374    0.0000 C   0  0  0  0  0  0  0  0  0  0  0  0
    7.6754   10.7453    0.0000 C   0  0  0  0  0  0  0  0  0  0  0  0
    7.8325   12.2332    0.0000 N   0  0  0  0  0  0  0  0  0  0  0  0
    9.3059   12.5412    0.0000 C   0  0  0  0  0  0  0  0  0  0  0  0
   10.0472   11.2371    0.0000 C   0  0  0  0  0  0  0  0  0  0  0  0
   11.5480   11.2376    0.0000 C   0  0  0  0  0  0  0  0  0  0  0  0
   12.3039   12.5285    0.0000 C   0  0  0  0  0  0  0  0  0  0  0  0
   11.5625   13.8325    0.0000 C   0  0  0  0  0  0  0  0  0  0  0  0
   10.0567   13.8407    0.0000 C   0  0  0  0  0  0  0  0  0  0  0  0
    8.5381    6.2010    0.0000 C   0  0  0  0  0  0  0  0  0  0  0  0
    7.4200    5.2011    0.0000 O   0  0  0  0  0  0  0  0  0  0  0  0
    9.9631    5.7326    0.0000 N   0  0  0  0  0  0  0  0  0  0  0  0
   10.2700    4.2643    0.0000 C   0  0  2  0  0  0  0  0  0  0  0  0
    9.1519    3.2644    0.0000 C   0  0  0  0  0  0  0  0  0  0  0  0
    9.4588    1.7962    0.0000 C   0  0  0  0  0  0  0  0  0  0  0  0
   10.8838    1.3278    0.0000 C   0  0  0  0  0  0  0  0  0  0  0  0
    8.3406    0.7963    0.0000 C   0  0  0  0  0  0  0  0  0  0  0  0
   11.6950    3.7960    0.0000 C   0  0  0  0  0  0  0  0  0  0  0  0
   12.8131    4.7959    0.0000 O   0  0  0  0  0  0  0  0  0  0  0  0
   12.0019    2.3277    0.0000 N   0  0  0  0  0  0  0  0  0  0  0  0
   13.4269    1.8593    0.0000 C   0  0  1  0  0  0  0  0  0  0  0  0
   14.5450    2.8592    0.0000 C   0  0  0  0  0  0  0  0  0  0  0  0
   15.9700    2.3909    0.0000 C   0  0  0  0  0  0  0  0  0  0  0  0
   16.4220    0.9646    0.0000 C   0  0  0  0  0  0  0  0  0  0  0  0
   17.9181    0.9552    0.0000 N   0  0  0  0  0  0  0  0  0  0  0  0
   18.3881    2.3852    0.0000 C   0  0  0  0  0  0  0  0  0  0  0  0
   17.1747    3.2670    0.0000 C   0  0  0  0  0  0  0  0  0  0  0  0
   17.3422    4.7585    0.0000 C   0  0  0  0  0  0  0  0  0  0  0  0
   18.7091    5.3660    0.0000 C   0  0  0  0  0  0  0  0  0  0  0  0
   19.9226    4.4841    0.0000 C   0  0  0  0  0  0  0  0  0  0  0  0
   19.7631    2.9867    0.0000 C   0  0  0  0  0  0  0  0  0  0  0  0
   13.7338    0.3911    0.0000 C   0  0  0  0  0  0  0  0  0  0  0  0
   12.6156   -0.6088    0.0000 O   0  0  0  0  0  0  0  0  0  0  0  0
   15.1588   -0.0773    0.0000 N   0  0  0  0  0  0  0  0  0  0  0  0
   15.4656   -1.5456    0.0000 C   0  0  2  0  0  0  0  0  0  0  0  0
   14.3475   -2.5455    0.0000 C   0  0  0  0  0  0  0  0  0  0  0  0
   14.6544   -4.0137    0.0000 C   0  0  0  0  0  0  0  0  0  0  0  0
   16.0794   -4.4821    0.0000 C   0  0  0  0  0  0  0  0  0  0  0  0
   13.5363   -5.0137    0.0000 C   0  0  0  0  0  0  0  0  0  0  0  0
   16.8906   -2.0139    0.0000 C   0  0  0  0  0  0  0  0  0  0  0  0
   18.0088   -1.0140    0.0000 O   0  0  0  0  0  0  0  0  0  0  0  0
   17.1975   -3.4822    0.0000 N   0  0  0  0  0  0  0  0  0  0  0  0
   18.6225   -3.9506    0.0000 C   0  0  1  0  0  0  0  0  0  0  0  0
   19.7407   -2.9507    0.0000 C   0  0  0  0  0  0  0  0  0  0  0  0
   21.1657   -3.4190    0.0000 C   0  0  0  0  0  0  0  0  0  0  0  0
   21.6176   -4.8453    0.0000 C   0  0  0  0  0  0  0  0  0  0  0  0
   23.1138   -4.8547    0.0000 N   0  0  0  0  0  0  0  0  0  0  0  0
   23.5838   -3.4247    0.0000 C   0  0  0  0  0  0  0  0  0  0  0  0
   22.3703   -2.5429    0.0000 C   0  0  0  0  0  0  0  0  0  0  0  0
   22.5378   -1.0514    0.0000 C   0  0  0  0  0  0  0  0  0  0  0  0
   23.9048   -0.4440    0.0000 C   0  0  0  0  0  0  0  0  0  0  0  0
   25.1182   -1.3258    0.0000 C   0  0  0  0  0  0  0  0  0  0  0  0
   24.9588   -2.8232    0.0000 C   0  0  0  0  0  0  0  0  0  0  0  0
   18.9294   -5.4188    0.0000 C   0  0  0  0  0  0  0  0  0  0  0  0
   17.8113   -6.4188    0.0000 O   0  0  0  0  0  0  0  0  0  0  0  0
   20.3544   -5.8872    0.0000 N   0  0  0  0  0  0  0  0  0  0  0  0
   20.6613   -7.3555    0.0000 C   0  0  2  0  0  0  0  0  0  0  0  0
   19.5432   -8.3554    0.0000 C   0  0  0  0  0  0  0  0  0  0  0  0
   19.8501   -9.8237    0.0000 C   0  0  0  0  0  0  0  0  0  0  0  0
   21.2751  -10.2920    0.0000 C   0  0  0  0  0  0  0  0  0  0  0  0
   18.7319  -10.8236    0.0000 C   0  0  0  0  0  0  0  0  0  0  0  0
   22.0863   -7.8239    0.0000 C   0  0  0  0  0  0  0  0  0  0  0  0
   23.2044   -6.8240    0.0000 O   0  0  0  0  0  0  0  0  0  0  0  0
   22.3932   -9.2921    0.0000 N   0  0  0  0  0  0  0  0  0  0  0  0
   23.8182   -9.7605    0.0000 C   0  0  1  0  0  0  0  0  0  0  0  0
   24.9363   -8.7606    0.0000 C   0  0  0  0  0  0  0  0  0  0  0  0
   26.3613   -9.2290    0.0000 C   0  0  0  0  0  0  0  0  0  0  0  0
   26.8133  -10.6552    0.0000 C   0  0  0  0  0  0  0  0  0  0  0  0
   28.3094  -10.6647    0.0000 N   0  0  0  0  0  0  0  0  0  0  0  0
   28.7794   -9.2347    0.0000 C   0  0  0  0  0  0  0  0  0  0  0  0
   27.5660   -8.3528    0.0000 C   0  0  0  0  0  0  0  0  0  0  0  0
   27.7335   -6.8614    0.0000 C   0  0  0  0  0  0  0  0  0  0  0  0
   29.1004   -6.2539    0.0000 C   0  0  0  0  0  0  0  0  0  0  0  0
   30.3139   -7.1357    0.0000 C   0  0  0  0  0  0  0  0  0  0  0  0
   30.1544   -8.6331    0.0000 C   0  0  0  0  0  0  0  0  0  0  0  0
   24.1251  -11.2288    0.0000 C   0  0  0  0  0  0  0  0  0  0  0  0
   23.0070  -12.2287    0.0000 O   0  0  0  0  0  0  0  0  0  0  0  0
   25.5501  -11.6971    0.0000 N   0  0  0  0  0  0  0  0  0  0  0  0
   25.8570  -13.1654    0.0000 C   0  0  0  0  0  0  0  0  0  0  0  0
   27.2820  -13.6338    0.0000 C   0  0  0  0  0  0  0  0  0  0  0  0
   27.5888  -15.1020    0.0000 O   0  0  0  0  0  0  0  0  0  0  0  0
  1  2  1  0  0  0  0 
  2  3  1  0  0  0  0 
  2  4  1  0  0  0  0 
  4  5  1  0  0  0  0 
  5  6  1  6  0  0  0 
  6  7  1  0  0  0  0 
  7  8  2  0  0  0  0 
  7  9  1  0  0  0  0 
  9 10  1  0  0  0  0 
 10 11  1  0  0  0  0 
 11 12  2  0  0  0  0 
 11 13  1  0  0  0  0 
 13 14  1  6  0  0  0 
 14 15  1  0  0  0  0 
 15 16  2  0  0  0  0 
 13 17  1  0  0  0  0 
 17 18  1  0  0  0  0 
 17 19  1  0  0  0  0 
  5 20  1  0  0  0  0 
 20 21  2  0  0  0  0 
 20 22  1  0  0  0  0 
 22 23  1  0  0  0  0 
 23 24  1  6  0  0  0 
 23 25  1  0  0  0  0 
 25 26  2  0  0  0  0 
 25 27  1  0  0  0  0 
 28 27  1  6  0  0  0 
 28 29  1  0  0  0  0 
 29 30  1  0  0  0  0 
 29 31  1  0  0  0  0 
 28 32  1  0  0  0  0 
 32 33  2  0  0  0  0 
 32 34  1  0  0  0  0 
 35 34  1  6  0  0  0 
 35 36  1  0  0  0  0 
 36 37  1  0  0  0  0 
 36 38  1  0  0  0  0 
 35 39  1  0  0  0  0 
 39 40  2  0  0  0  0 
 39 41  1  0  0  0  0 
 42 41  1  6  0  0  0 
 42 43  1  0  0  0  0 
 43 44  1  0  0  0  0 
 43 45  1  0  0  0  0 
 42 46  1  0  0  0  0 
 46 47  2  0  0  0  0 
 46 48  1  0  0  0  0 
 49 48  1  1  0  0  0 
 49 50  1  0  0  0  0 
 50 51  1  0  0  0  0 
 51 52  2  0  0  0  0 
 52 53  1  0  0  0  0 
 53 54  1  0  0  0  0 
 54 55  2  0  0  0  0 
 51 55  1  0  0  0  0 
 55 56  1  0  0  0  0 
 56 57  2  0  0  0  0 
 57 58  1  0  0  0  0 
 58 59  2  0  0  0  0 
 54 59  1  0  0  0  0 
 49 60  1  0  0  0  0 
 60 61  2  0  0  0  0 
 60 62  1  0  0  0  0 
 63 62  1  1  0  0  0 
 63 64  1  0  0  0  0 
 64 65  1  0  0  0  0 
 65 66  1  0  0  0  0 
 65 67  1  0  0  0  0 
 63 68  1  0  0  0  0 
 68 69  2  0  0  0  0 
 68 70  1  0  0  0  0 
 71 70  1  1  0  0  0 
 71 72  1  0  0  0  0 
 72 73  1  0  0  0  0 
 73 74  2  0  0  0  0 
 74 75  1  0  0  0  0 
 75 76  1  0  0  0  0 
 76 77  2  0  0  0  0 
 73 77  1  0  0  0  0 
 77 78  1  0  0  0  0 
 78 79  2  0  0  0  0 
 79 80  1  0  0  0  0 
 80 81  2  0  0  0  0 
 76 81  1  0  0  0  0 
 71 82  1  0  0  0  0 
 82 83  2  0  0  0  0 
 82 84  1  0  0  0  0 
 85 84  1  1  0  0  0 
 85 86  1  0  0  0  0 
 86 87  1  0  0  0  0 
 87 88  1  0  0  0  0 
 87 89  1  0  0  0  0 
 85 90  1  0  0  0  0 
 90 91  2  0  0  0  0 
 90 92  1  0  0  0  0 
 93 92  1  1  0  0  0 
 93 94  1  0  0  0  0 
 94 95  1  0  0  0  0 
 95 96  2  0  0  0  0 
 96 97  1  0  0  0  0 
 97 98  1  0  0  0  0 
 98 99  2  0  0  0  0 
 95 99  1  0  0  0  0 
 99100  1  0  0  0  0 
100101  2  0  0  0  0 
101102  1  0  0  0  0 
102103  2  0  0  0  0 
 98103  1  0  0  0  0 
 93104  1  0  0  0  0 
104105  2  0  0  0  0 
104106  1  0  0  0  0 
107106  1  1  0  0  0 
107108  1  0  0  0  0 
108109  1  0  0  0  0 
109110  1  0  0  0  0 
109111  1  0  0  0  0 
107112  1  0  0  0  0 
112113  2  0  0  0  0 
112114  1  0  0  0  0 
115114  1  1  0  0  0 
115116  1  0  0  0  0 
116117  1  0  0  0  0 
117118  2  0  0  0  0 
118119  1  0  0  0  0 
119120  1  0  0  0  0 
120121  2  0  0  0  0 
117121  1  0  0  0  0 
121122  1  0  0  0  0 
122123  2  0  0  0  0 
123124  1  0  0  0  0 
124125  2  0  0  0  0 
120125  1  0  0  0  0 
115126  1  0  0  0  0 
126127  2  0  0  0  0 
126128  1  0  0  0  0 
128129  1  0  0  0  0 
129130  1  0  0  0  0 
130131  1  0  0  0  0 
M  END
> <SMILES>
CC(C)C[C@@H](NC(=O)CNC(=O)[C@@H](NC=O)C(C)C)C(=O)N[C@@H](C)C(=O)N[C@H](C(C)C)C(=O)N[C@@H](C(C)C)C(=O)N[C@H](C(C)C)C(=O)N[C@@H](CC1=CNC2=C1C=CC=C2)C(=O)N[C@H](CC(C)C)C(=O)N[C@@H](CC1=CNC2=C1C=CC=C2)C(=O)N[C@H](CC(C)C)C(=O)N[C@@H](CC1=CNC2=C1C=CC=C2)C(=O)N[C@H](CC(C)C)C(=O)N[C@@H](CC1=CNC2=C1C=CC=C2)C(=O)NCCO

$$$$

  CDK     06141809482D

 22 22  0  0  0  0  0  0  0  0999 V2000
    7.2064    1.8871    0.0000 C   0  0  0  0  0  0  0  0  0  0  0  0
    5.9326    1.0951    0.0000 O   0  0  0  0  0  0  0  0  0  0  0  0
    4.6097    1.8022    0.0000 C   0  0  0  0  0  0  0  0  0  0  0  0
    3.3359    1.0101    0.0000 C   0  0  0  0  0  0  0  0  0  0  0  0
    2.0130    1.7173    0.0000 C   0  0  0  0  0  0  0  0  0  0  0  0
    0.7392    0.9252    0.0000 C   0  0  0  0  0  0  0  0  0  0  0  0
   -0.5837    1.6323    0.0000 C   0  0  0  0  0  0  0  0  0  0  0  0
   -0.6327    3.1315    0.0000 N   0  0  0  0  0  0  0  0  0  0  0  0
   -1.9556    3.8386    0.0000 O   0  0  0  0  0  0  0  0  0  0  0  0
   -2.0046    5.3378    0.0000 C   0  0  0  0  0  0  0  0  0  0  0  0
   -3.3275    6.0450    0.0000 C   0  0  0  0  0  0  0  0  0  0  0  0
   -3.3765    7.5442    0.0000 N   0  0  0  0  0  0  0  0  0  0  0  0
   -1.8575    0.8403    0.0000 C   0  0  0  0  0  0  0  0  0  0  0  0
   -3.1270    1.5391    0.0000 C   0  0  0  0  0  0  0  0  0  0  0  0
   -4.4137    0.8078    0.0000 C   0  0  0  0  0  0  0  0  0  0  0  0
   -4.3463   -0.6890    0.0000 C   0  0  0  0  0  0  0  0  0  0  0  0
   -3.0768   -1.3879    0.0000 C   0  0  0  0  0  0  0  0  0  0  0  0
   -1.7901   -0.6566    0.0000 C   0  0  0  0  0  0  0  0  0  0  0  0
   -5.6201   -1.4811    0.0000 C   0  0  0  0  0  0  0  0  0  0  0  0
   -5.5711   -2.9803    0.0000 F   0  0  0  0  0  0  0  0  0  0  0  0
   -6.1789   -0.0891    0.0000 F   0  0  0  0  0  0  0  0  0  0  0  0
   -7.0880   -1.7897    0.0000 F   0  0  0  0  0  0  0  0  0  0  0  0
  1  2  1  0  0  0  0 
  2  3  1  0  0  0  0 
  3  4  1  0  0  0  0 
  4  5  1  0  0  0  0 
  5  6  1  0  0  0  0 
  6  7  1  0  0  0  0 
  7  8  2  0  0  0  0 
  8  9  1  4  0  0  0 
  9 10  1  0  0  0  0 
 10 11  1  0  0  0  0 
 11 12  1  0  0  0  0 
  7 13  1  0  0  0  0 
 13 14  2  0  0  0  0 
 14 15  1  0  0  0  0 
 15 16  2  0  0  0  0 
 16 17  1  0  0  0  0 
 17 18  2  0  0  0  0 
 13 18  1  0  0  0  0 
 16 19  1  0  0  0  0 
 19 20  1  0  0  0  0 
 19 21  1  0  0  0  0 
 19 22  1  0  0  0  0 
M  END
> <SMILES>
COCCCCC(=NOCCN)C1=CC=C(C=C1)C(F)(F)F

$$$$

  CDK     06141809482D

 22 24  0  0  0  0  0  0  0  0999 V2000
    1.2481    0.1890    0.0000 O   0  0  0  0  0  0  0  0  0  0  0  0
    0.3276    1.3733    0.0000 C   0  0  0  0  0  0  0  0  0  0  0  0
   -0.1324    2.8011    0.0000 C   0  0  0  0  0  0  0  0  0  0  0  0
   -1.5989    3.1166    0.0000 N   0  0  0  0  0  0  0  0  0  0  0  0
   -2.1980    4.4837    0.0000 C   0  0  0  0  0  0  0  0  0  0  0  0
   -3.6905    4.3344    0.0000 N   0  0  0  0  0  0  0  0  0  0  0  0
   -4.0068    2.8756    0.0000 C   0  0  0  0  0  0  0  0  0  0  0  0
   -2.7142    2.1105    0.0000 N   0  0  0  0  0  0  0  0  0  0  0  0
   -0.6789    0.2611    0.0000 C   0  0  0  0  0  0  0  0  0  0  0  0
   -0.2189   -1.1666    0.0000 N   0  0  0  0  0  0  0  0  0  0  0  0
    1.2011   -1.6266    0.0000 C   0  0  0  0  0  0  0  0  0  0  0  0
    1.2011   -3.1266    0.0000 N   0  0  0  0  0  0  0  0  0  0  0  0
   -0.2189   -3.5866    0.0000 C   0  0  0  0  0  0  0  0  0  0  0  0
   -1.1089   -2.3766    0.0000 N   0  0  0  0  0  0  0  0  0  0  0  0
    1.6537    2.0742    0.0000 C   0  0  0  0  0  0  0  0  0  0  0  0
    2.9246    1.2759    0.0000 C   0  0  0  0  0  0  0  0  0  0  0  0
    2.8683   -0.2230    0.0000 F   0  0  0  0  0  0  0  0  0  0  0  0
    4.2519    1.9766    0.0000 C   0  0  0  0  0  0  0  0  0  0  0  0
    4.3082    3.4755    0.0000 C   0  0  0  0  0  0  0  0  0  0  0  0
    5.6344    4.1765    0.0000 F   0  0  0  0  0  0  0  0  0  0  0  0
    3.0373    4.2738    0.0000 C   0  0  0  0  0  0  0  0  0  0  0  0
    1.7100    3.5732    0.0000 C   0  0  0  0  0  0  0  0  0  0  0  0
  1  2  1  0  0  0  0 
  2  3  1  0  0  0  0 
  3  4  1  0  0  0  0 
  4  5  1  0  0  0  0 
  5  6  2  0  0  0  0 
  6  7  1  0  0  0  0 
  7  8  2  0  0  0  0 
  4  8  1  0  0  0  0 
  2  9  1  0  0  0  0 
  9 10  1  0  0  0  0 
 10 11  1  0  0  0  0 
 11 12  2  0  0  0  0 
 12 13  1  0  0  0  0 
 13 14  2  0  0  0  0 
 10 14  1  0  0  0  0 
  2 15  1  0  0  0  0 
 15 16  2  0  0  0  0 
 16 17  1  0  0  0  0 
 16 18  1  0  0  0  0 
 18 19  2  0  0  0  0 
 19 20  1  0  0  0  0 
 19 21  1  0  0  0  0 
 21 22  2  0  0  0  0 
 15 22  1  0  0  0  0 
M  END
> <SMILES>
OC(CN1C=NC=N1)(CN1C=NC=N1)C1=C(F)C=C(F)C=C1

$$$$

  CDK     06141809482D

 51 53  0  0  1  0  0  0  0  0999 V2000
   -3.3802   -8.5511    0.0000 C   0  0  0  0  0  0  0  0  0  0  0  0
   -2.0812   -7.8009    0.0000 C   0  0  0  0  0  0  0  0  0  0  0  0
   -2.0815   -6.3009    0.0000 C   0  0  1  0  0  0  0  0  0  0  0  0
   -0.7820   -5.5501    0.0000 O   0  0  0  0  0  0  0  0  0  0  0  0
    0.5171   -6.3001    0.0000 C   0  0  0  0  0  0  0  0  0  0  0  0
    0.5173   -7.8001    0.0000 O   0  0  0  0  0  0  0  0  0  0  0  0
    1.8166   -5.5492    0.0000 C   0  0  2  0  0  0  0  0  0  0  0  0
    3.1156   -6.2992    0.0000 C   0  0  0  0  0  0  0  0  0  0  0  0
    1.8171   -4.0484    0.0000 C   0  0  1  0  0  0  0  0  0  0  0  0
    3.1162   -3.2986    0.0000 O   0  0  0  0  0  0  0  0  0  0  0  0
    4.4151   -4.0488    0.0000 C   0  0  1  0  0  0  0  0  0  0  0  0
    5.7144   -3.2992    0.0000 C   0  0  0  0  0  0  0  0  0  0  0  0
    7.0137   -4.0505    0.0000 C   0  0  1  0  0  0  0  0  0  0  0  0
    7.5273   -2.6412    0.0000 C   0  0  0  0  0  0  0  0  0  0  0  0
    8.4909   -4.3113    0.0000 O   0  0  0  0  0  0  0  0  0  0  0  0
    9.4553   -3.1624    0.0000 C   0  0  0  0  0  0  0  0  0  0  0  0
    7.0137   -5.5513    0.0000 C   0  0  1  0  0  0  0  0  0  0  0  0
    8.3126   -6.3015    0.0000 O   0  0  0  0  0  0  0  0  0  0  0  0
    5.7144   -6.3009    0.0000 C   0  0  2  0  0  0  0  0  0  0  0  0
    5.7137   -7.8009    0.0000 C   0  0  0  0  0  0  0  0  0  0  0  0
    4.4151   -5.5496    0.0000 O   0  0  0  0  0  0  0  0  0  0  0  0
    0.5180   -3.2984    0.0000 C   0  0  2  0  0  0  0  0  0  0  0  0
   -0.7811   -4.0482    0.0000 C   0  0  0  0  0  0  0  0  0  0  0  0
    0.5185   -1.7976    0.0000 C   0  0  1  0  0  0  0  0  0  0  0  0
    1.8177   -1.0478    0.0000 O   0  0  0  0  0  0  0  0  0  0  0  0
    1.8179    0.4522    0.0000 C   0  0  2  0  0  0  0  0  0  0  0  0
    0.5184    1.2031    0.0000 O   0  0  0  0  0  0  0  0  0  0  0  0
    0.5179    2.7039    0.0000 C   0  0  2  0  0  0  0  0  0  0  0  0
   -0.7812    3.4537    0.0000 C   0  0  0  0  0  0  0  0  0  0  0  0
    1.8170    3.4539    0.0000 C   0  0  0  0  0  0  0  0  0  0  0  0
    3.1165    2.7031    0.0000 C   0  0  1  0  0  0  0  0  0  0  0  0
    3.1170    1.2022    0.0000 C   0  0  1  0  0  0  0  0  0  0  0  0
    4.4161    0.4524    0.0000 O   0  0  0  0  0  0  0  0  0  0  0  0
    4.4155    3.4531    0.0000 N   0  0  0  0  0  0  0  0  0  0  0  0
    4.4155    4.9531    0.0000 C   0  0  0  0  0  0  0  0  0  0  0  0
    5.7145    2.7031    0.0000 C   0  0  0  0  0  0  0  0  0  0  0  0
   -0.7805   -1.0476    0.0000 C   0  0  2  0  0  0  0  0  0  0  0  0
    0.1835    0.1016    0.0000 C   0  0  0  0  0  0  0  0  0  0  0  0
   -1.7449    0.1013    0.0000 O   0  0  0  0  0  0  0  0  0  0  0  0
   -2.0800   -1.7984    0.0000 C   0  0  0  0  0  0  0  0  0  0  0  0
   -3.3791   -1.0484    0.0000 C   0  0  1  0  0  0  0  0  0  0  0  0
   -3.3793    0.4516    0.0000 C   0  0  0  0  0  0  0  0  0  0  0  0
   -4.6786   -1.7992    0.0000 C   0  0  0  0  0  0  0  0  0  0  0  0
   -5.9776   -1.0492    0.0000 O   0  0  0  0  0  0  0  0  0  0  0  0
   -4.6791   -3.3001    0.0000 C   0  0  2  0  0  0  0  0  0  0  0  0
   -5.9782   -4.0499    0.0000 C   0  0  0  0  0  0  0  0  0  0  0  0
   -3.3800   -4.0501    0.0000 C   0  0  1  0  0  0  0  0  0  0  0  0
   -2.0809   -3.3003    0.0000 O   0  0  0  0  0  0  0  0  0  0  0  0
   -3.3805   -5.5509    0.0000 C   0  0  1  0  0  0  0  0  0  0  0  0
   -4.8577   -5.2901    0.0000 C   0  0  0  0  0  0  0  0  0  0  0  0
   -3.8937   -6.9604    0.0000 O   0  0  0  0  0  0  0  0  0  0  0  0
  1  2  1  0  0  0  0 
  3  2  1  6  0  0  0 
  3  4  1  0  0  0  0 
  4  5  1  0  0  0  0 
  5  6  2  0  0  0  0 
  5  7  1  0  0  0  0 
  7  8  1  1  0  0  0 
  7  9  1  0  0  0  0 
  9 10  1  6  0  0  0 
 11 10  1  1  0  0  0 
 11 12  1  0  0  0  0 
 12 13  1  0  0  0  0 
 13 14  1  6  0  0  0 
 13 15  1  1  0  0  0 
 15 16  1  0  0  0  0 
 13 17  1  0  0  0  0 
 17 18  1  1  0  0  0 
 17 19  1  0  0  0  0 
 19 20  1  6  0  0  0 
 19 21  1  0  0  0  0 
 11 21  1  0  0  0  0 
  9 22  1  0  0  0  0 
 22 23  1  6  0  0  0 
 22 24  1  0  0  0  0 
 24 25  1  6  0  0  0 
 26 25  1  6  0  0  0 
 26 27  1  0  0  0  0 
 27 28  1  0  0  0  0 
 28 29  1  6  0  0  0 
 28 30  1  0  0  0  0 
 30 31  1  0  0  0  0 
 31 32  1  0  0  0  0 
 26 32  1  0  0  0  0 
 32 33  1  1  0  0  0 
 31 34  1  6  0  0  0 
 34 35  1  0  0  0  0 
 34 36  1  0  0  0  0 
 24 37  1  0  0  0  0 
 37 38  1  6  0  0  0 
 37 39  1  1  0  0  0 
 37 40  1  0  0  0  0 
 40 41  1  0  0  0  0 
 41 42  1  6  0  0  0 
 41 43  1  0  0  0  0 
 43 44  2  0  0  0  0 
 43 45  1  0  0  0  0 
 45 46  1  1  0  0  0 
 45 47  1  0  0  0  0 
 47 48  1  1  0  0  0 
 47 49  1  0  0  0  0 
  3 49  1  0  0  0  0 
 49 50  1  6  0  0  0 
 49 51  1  1  0  0  0 
M  END
> <SMILES>
CC[C@H]1OC(=O)[C@H](C)[C@@H](O[C@H]2C[C@@](C)(OC)[C@@H](O)[C@H](C)O2)[C@H](C)[C@@H](O[C@@H]2O[C@H](C)C[C@@H]([C@H]2O)N(C)C)[C@](C)(O)C[C@@H](C)C(=O)[C@H](C)[C@@H](O)[C@]1(C)O

$$$$

  CDK     06141809482D

 52 54  0  0  1  0  0  0  0  0999 V2000
    6.4970   12.7535    0.0000 C   0  0  0  0  0  0  0  0  0  0  0  0
    6.4972   11.2535    0.0000 C   0  0  0  0  0  0  0  0  0  0  0  0
    5.1983   10.5033    0.0000 C   0  0  1  0  0  0  0  0  0  0  0  0
    5.1983    9.0025    0.0000 O   0  0  0  0  0  0  0  0  0  0  0  0
    6.4976    8.2529    0.0000 C   0  0  0  0  0  0  0  0  0  0  0  0
    7.7965    9.0031    0.0000 O   0  0  0  0  0  0  0  0  0  0  0  0
    6.4976    6.7521    0.0000 C   0  0  2  0  0  0  0  0  0  0  0  0
    5.1983    7.5017    0.0000 C   0  0  0  0  0  0  0  0  0  0  0  0
    5.1983    6.0008    0.0000 C   0  0  1  0  0  0  0  0  0  0  0  0
    6.4976    5.2512    0.0000 O   0  0  0  0  0  0  0  0  0  0  0  0
    7.7964    6.0017    0.0000 C   0  0  1  0  0  0  0  0  0  0  0  0
    9.0958    5.2523    0.0000 C   0  0  0  0  0  0  0  0  0  0  0  0
   10.3949    6.0037    0.0000 C   0  0  1  0  0  0  0  0  0  0  0  0
   10.9088    4.5945    0.0000 C   0  0  0  0  0  0  0  0  0  0  0  0
   11.8721    6.2648    0.0000 O   0  0  0  0  0  0  0  0  0  0  0  0
   12.3846    7.6745    0.0000 C   0  0  0  0  0  0  0  0  0  0  0  0
   10.3947    7.5046    0.0000 C   0  0  1  0  0  0  0  0  0  0  0  0
   11.6935    8.2550    0.0000 O   0  0  0  0  0  0  0  0  0  0  0  0
    9.0953    8.2540    0.0000 C   0  0  2  0  0  0  0  0  0  0  0  0
    9.0943    9.7540    0.0000 C   0  0  0  0  0  0  0  0  0  0  0  0
    7.7962    7.5025    0.0000 O   0  0  0  0  0  0  0  0  0  0  0  0
    5.1983    4.5000    0.0000 C   0  0  2  0  0  0  0  0  0  0  0  0
    6.4976    3.7504    0.0000 C   0  0  0  0  0  0  0  0  0  0  0  0
    3.8990    3.7488    0.0000 C   0  0  1  0  0  0  0  0  0  0  0  0
    3.8998    2.2488    0.0000 O   0  0  0  0  0  0  0  0  0  0  0  0
    5.1992    1.4994    0.0000 C   0  0  2  0  0  0  0  0  0  0  0  0
    6.4987    2.2502    0.0000 O   0  0  0  0  0  0  0  0  0  0  0  0
    7.7992    1.5010    0.0000 C   0  0  2  0  0  0  0  0  0  0  0  0
    9.0976    2.2521    0.0000 C   0  0  0  0  0  0  0  0  0  0  0  0
    7.8001    0.0010    0.0000 C   0  0  0  0  0  0  0  0  0  0  0  0
    6.5006   -0.7498    0.0000 C   0  0  1  0  0  0  0  0  0  0  0  0
    5.2001   -0.0006    0.0000 C   0  0  1  0  0  0  0  0  0  0  0  0
    3.9017   -0.7517    0.0000 O   0  0  0  0  0  0  0  0  0  0  0  0
    6.5016   -2.2498    0.0000 N   0  0  0  0  0  0  0  0  0  0  0  0
    7.8011   -2.9990    0.0000 C   0  0  0  0  0  0  0  0  0  0  0  0
    5.2030   -3.0006    0.0000 C   0  0  0  0  0  0  0  0  0  0  0  0
    2.5998    4.4983    0.0000 C   0  0  2  0  0  0  0  0  0  0  0  0
    3.5635    5.6478    0.0000 C   0  0  0  0  0  0  0  0  0  0  0  0
    1.6350    5.6469    0.0000 O   0  0  0  0  0  0  0  0  0  0  0  0
    1.3005    3.7471    0.0000 C   0  0  0  0  0  0  0  0  0  0  0  0
    0.0012    4.4967    0.0000 C   0  0  1  0  0  0  0  0  0  0  0  0
   -1.2977    3.7465    0.0000 C   0  0  0  0  0  0  0  0  0  0  0  0
    0.0012    5.9975    0.0000 C   0  0  0  0  0  0  0  0  0  0  0  0
    1.3005    6.7488    0.0000 N   0  0  0  0  0  0  0  0  0  0  0  0
    2.5998    5.9992    0.0000 C   0  0  0  0  0  0  0  0  0  0  0  0
    1.3005    8.2496    0.0000 C   0  0  2  0  0  0  0  0  0  0  0  0
    0.0012    8.9992    0.0000 C   0  0  0  0  0  0  0  0  0  0  0  0
    2.5998    9.0008    0.0000 C   0  0  1  0  0  0  0  0  0  0  0  0
    1.5386   10.0610    0.0000 O   0  0  0  0  0  0  0  0  0  0  0  0
    3.8990   11.2529    0.0000 C   0  0  1  0  0  0  0  0  0  0  0  0
    4.6486   12.5522    0.0000 C   0  0  0  0  0  0  0  0  0  0  0  0
    2.5998   12.0025    0.0000 O   0  0  0  0  0  0  0  0  0  0  0  0
  1  2  1  0  0  0  0 
  3  2  1  1  0  0  0 
  3  4  1  0  0  0  0 
  4  5  1  0  0  0  0 
  5  6  2  0  0  0  0 
  5  7  1  0  0  0  0 
  7  8  1  6  0  0  0 
  7  9  1  0  0  0  0 
  9 10  1  6  0  0  0 
 11 10  1  6  0  0  0 
 11 12  1  0  0  0  0 
 12 13  1  0  0  0  0 
 13 14  1  1  0  0  0 
 13 15  1  6  0  0  0 
 15 16  1  0  0  0  0 
 13 17  1  0  0  0  0 
 17 18  1  6  0  0  0 
 17 19  1  0  0  0  0 
 19 20  1  1  0  0  0 
 19 21  1  0  0  0  0 
 11 21  1  0  0  0  0 
  9 22  1  0  0  0  0 
 22 23  1  6  0  0  0 
 22 24  1  0  0  0  0 
 24 25  1  1  0  0  0 
 26 25  1  6  0  0  0 
 26 27  1  0  0  0  0 
 27 28  1  0  0  0  0 
 28 29  1  6  0  0  0 
 28 30  1  0  0  0  0 
 30 31  1  0  0  0  0 
 31 32  1  0  0  0  0 
 26 32  1  0  0  0  0 
 32 33  1  1  0  0  0 
 31 34  1  6  0  0  0 
 34 35  1  0  0  0  0 
 34 36  1  0  0  0  0 
 24 37  1  0  0  0  0 
 37 38  1  6  0  0  0 
 37 39  1  1  0  0  0 
 37 40  1  0  0  0  0 
 40 41  1  0  0  0  0 
 41 42  1  1  0  0  0 
 41 43  1  0  0  0  0 
 43 44  1  0  0  0  0 
 44 45  1  0  0  0  0 
 44 46  1  0  0  0  0 
 46 47  1  6  0  0  0 
 46 48  1  0  0  0  0 
 48 49  1  6  0  0  0 
 48 50  1  0  0  0  0 
  3 50  1  0  0  0  0 
 50 51  1  1  0  0  0 
 50 52  1  6  0  0  0 
M  END
> <SMILES>
CC[C@H]1OC(=O)[C@H](C)[C@@H](O[C@H]2C[C@@](C)(OC)[C@@H](O)[C@H](C)O2)[C@H](C)[C@@H](O[C@@H]2O[C@H](C)C[C@@H]([C@H]2O)N(C)C)[C@](C)(O)C[C@@H](C)CN(C)[C@H](C)[C@@H](O)[C@]1(C)O

$$$$

  CDK     06141809482D

 26 28  0  0  0  0  0  0  0  0999 V2000
   10.8512    1.2978    0.0000 C   0  0  0  0  0  0  0  0  0  0  0  0
    9.3512    1.2981    0.0000 O   0  0  0  0  0  0  0  0  0  0  0  0
    8.6010   -0.0008    0.0000 C   0  0  0  0  0  0  0  0  0  0  0  0
    7.1002   -0.0001    0.0000 C   0  0  0  0  0  0  0  0  0  0  0  0
    6.3506    1.2992    0.0000 O   0  0  0  0  0  0  0  0  0  0  0  0
    7.1010    2.5980    0.0000 C   0  0  0  0  0  0  0  0  0  0  0  0
    6.3500   -1.2990    0.0000 C   0  0  0  0  0  0  0  0  0  0  0  0
    4.8500   -1.2990    0.0000 C   0  0  0  0  0  0  0  0  0  0  0  0
    4.1000   -0.0000    0.0000 S   0  0  0  0  0  0  0  0  0  0  0  0
    4.8500    1.2990    0.0000 O   0  0  0  0  0  0  0  0  0  0  0  0
    2.6000    0.0000    0.0000 C   0  0  0  0  0  0  0  0  0  0  0  0
    1.7200   -1.2100    0.0000 N   0  0  0  0  0  0  0  0  0  0  0  0
    0.2900   -0.7500    0.0000 C   0  0  0  0  0  0  0  0  0  0  0  0
    0.2900    0.7500    0.0000 C   0  0  0  0  0  0  0  0  0  0  0  0
    1.7200    1.2100    0.0000 N   0  0  0  0  0  0  0  0  0  0  0  0
   -1.0100    1.5000    0.0000 C   0  0  0  0  0  0  0  0  0  0  0  0
   -2.3100    0.7500    0.0000 C   0  0  0  0  0  0  0  0  0  0  0  0
   -3.6089    1.5002    0.0000 O   0  0  0  0  0  0  0  0  0  0  0  0
   -4.9081    0.7504    0.0000 C   0  0  0  0  0  0  0  0  0  0  0  0
   -6.2070    1.5006    0.0000 F   0  0  0  0  0  0  0  0  0  0  0  0
   -4.9083   -0.7496    0.0000 F   0  0  0  0  0  0  0  0  0  0  0  0
   -2.3100   -0.7500    0.0000 C   0  0  0  0  0  0  0  0  0  0  0  0
   -1.0100   -1.5000    0.0000 C   0  0  0  0  0  0  0  0  0  0  0  0
    7.1006   -2.5987    0.0000 N   0  0  0  0  0  0  0  0  0  0  0  0
    8.6015   -2.5994    0.0000 C   0  0  0  0  0  0  0  0  0  0  0  0
    9.3517   -1.3005    0.0000 C   0  0  0  0  0  0  0  0  0  0  0  0
  1  2  1  0  0  0  0 
  2  3  1  0  0  0  0 
  3  4  2  0  0  0  0 
  4  5  1  0  0  0  0 
  5  6  1  0  0  0  0 
  4  7  1  0  0  0  0 
  7  8  1  0  0  0  0 
  8  9  1  0  0  0  0 
  9 10  2  0  0  0  0 
  9 11  1  0  0  0  0 
 11 12  2  0  0  0  0 
 12 13  1  0  0  0  0 
 13 14  2  0  0  0  0 
 14 15  1  0  0  0  0 
 11 15  1  0  0  0  0 
 14 16  1  0  0  0  0 
 16 17  2  0  0  0  0 
 17 18  1  0  0  0  0 
 18 19  1  0  0  0  0 
 19 20  1  0  0  0  0 
 19 21  1  0  0  0  0 
 17 22  1  0  0  0  0 
 22 23  2  0  0  0  0 
 13 23  1  0  0  0  0 
  7 24  2  0  0  0  0 
 24 25  1  0  0  0  0 
 25 26  2  0  0  0  0 
  3 26  1  0  0  0  0 
M  END
> <SMILES>
COC1=C(OC)C(CS(=O)C2=NC3=C(N2)C=C(OC(F)F)C=C3)=NC=C1

$$$$

  CDK     06141809482D

 27 30  0  0  1  0  0  0  0  0999 V2000
    4.7572   -0.0701    0.0000 C   0  0  0  0  0  0  0  0  0  0  0  0
    4.9130   -1.5620    0.0000 N   0  0  0  0  0  0  0  0  0  0  0  0
    6.2092   -2.3091    0.0000 C   0  0  0  0  0  0  0  0  0  0  0  0
    5.9031   -3.7797    0.0000 C   0  0  0  0  0  0  0  0  0  0  0  0
    4.4115   -3.9383    0.0000 C   0  0  0  0  0  0  0  0  0  0  0  0
    3.7929   -2.5661    0.0000 C   0  0  2  0  0  0  0  0  0  0  0  0
    2.3253   -2.2560    0.0000 C   0  0  0  0  0  0  0  0  0  0  0  0
    1.8600   -0.8300    0.0000 C   0  0  0  0  0  0  0  0  0  0  0  0
    2.7400    0.3800    0.0000 C   0  0  0  0  0  0  0  0  0  0  0  0
    1.8600    1.5900    0.0000 N   0  0  0  0  0  0  0  0  0  0  0  0
    0.4400    1.1400    0.0000 C   0  0  0  0  0  0  0  0  0  0  0  0
    0.4300   -0.3700    0.0000 C   0  0  0  0  0  0  0  0  0  0  0  0
   -0.8600   -1.1300    0.0000 C   0  0  0  0  0  0  0  0  0  0  0  0
   -2.1700   -0.3700    0.0000 C   0  0  0  0  0  0  0  0  0  0  0  0
   -3.4723   -1.1143    0.0000 C   0  0  0  0  0  0  0  0  0  0  0  0
   -4.7681   -0.3586    0.0000 C   0  0  0  0  0  0  0  0  0  0  0  0
   -6.0704   -1.1029    0.0000 S   0  0  0  0  0  0  0  0  0  0  0  0
   -7.0396   -2.2477    0.0000 O   0  0  0  0  0  0  0  0  0  0  0  0
   -5.1112   -2.2562    0.0000 O   0  0  0  0  0  0  0  0  0  0  0  0
   -7.3661   -0.3472    0.0000 C   0  0  0  0  0  0  0  0  0  0  0  0
   -8.6685   -1.0913    0.0000 C   0  0  0  0  0  0  0  0  0  0  0  0
   -9.9646   -0.3346    0.0000 C   0  0  0  0  0  0  0  0  0  0  0  0
   -9.9583    1.1662    0.0000 C   0  0  0  0  0  0  0  0  0  0  0  0
   -8.6559    1.9103    0.0000 C   0  0  0  0  0  0  0  0  0  0  0  0
   -7.3598    1.1536    0.0000 C   0  0  0  0  0  0  0  0  0  0  0  0
   -2.1600    1.1300    0.0000 C   0  0  0  0  0  0  0  0  0  0  0  0
   -0.8700    1.8800    0.0000 C   0  0  0  0  0  0  0  0  0  0  0  0
  1  2  1  0  0  0  0 
  2  3  1  0  0  0  0 
  3  4  1  0  0  0  0 
  4  5  1  0  0  0  0 
  5  6  1  0  0  0  0 
  2  6  1  0  0  0  0 
  6  7  1  6  0  0  0 
  7  8  1  0  0  0  0 
  8  9  2  0  0  0  0 
  9 10  1  0  0  0  0 
 10 11  1  0  0  0  0 
 11 12  2  0  0  0  0 
  8 12  1  0  0  0  0 
 12 13  1  0  0  0  0 
 13 14  2  0  0  0  0 
 14 15  1  0  0  0  0 
 15 16  1  0  0  0  0 
 16 17  1  0  0  0  0 
 17 18  2  0  0  0  0 
 17 19  2  0  0  0  0 
 17 20  1  0  0  0  0 
 20 21  2  0  0  0  0 
 21 22  1  0  0  0  0 
 22 23  2  0  0  0  0 
 23 24  1  0  0  0  0 
 24 25  2  0  0  0  0 
 20 25  1  0  0  0  0 
 14 26  1  0  0  0  0 
 26 27  2  0  0  0  0 
 11 27  1  0  0  0  0 
M  END
> <SMILES>
CN1CCC[C@@H]1CC1=CNC2=C1C=C(CCS(=O)(=O)C1=CC=CC=C1)C=C2

$$$$

  CDK     06141809482D

 30 32  0  0  1  0  0  0  0  0999 V2000
    0.0000    2.2500    0.0000 H   0  0  0  0  0  0  0  0  0  0  0  0
    0.0000    0.7500    0.0000 C   0  0  1  0  0  0  0  0  0  0  0  0
   -1.3000    1.5000    0.0000 C   0  0  2  0  0  0  0  0  0  0  0  0
   -2.6000    0.7500    0.0000 C   0  0  0  0  0  0  0  0  0  0  0  0
   -2.6000   -0.7500    0.0000 C   0  0  1  0  0  0  0  0  0  0  0  0
   -3.8989   -1.5002    0.0000 C   0  0  0  0  0  0  0  0  0  0  0  0
   -1.3000   -1.5000    0.0000 C   0  0  0  0  0  0  0  0  0  0  0  0
    0.0000   -0.7500    0.0000 C   0  0  0  0  0  0  0  0  0  0  0  0
    1.3000   -1.5000    0.0000 C   0  0  0  0  0  0  0  0  0  0  0  0
    2.6000   -0.7500    0.0000 C   0  0  0  0  0  0  0  0  0  0  0  0
    2.6000    0.7500    0.0000 C   0  0  2  0  0  0  0  0  0  0  0  0
    3.8989    1.5002    0.0000 C   0  0  0  0  0  0  0  0  0  0  0  0
    1.3000    1.5000    0.0000 C   0  0  2  0  0  0  0  0  0  0  0  0
    1.3000    3.0000    0.0000 C   0  0  0  0  0  0  0  0  0  0  0  0
    2.5990    3.7500    0.0000 C   0  0  0  0  0  0  0  0  0  0  0  0
    2.5990    5.2500    0.0000 C   0  0  2  0  0  0  0  0  0  0  0  0
    3.8980    6.0002    0.0000 C   0  0  0  0  0  0  0  0  0  0  0  0
    3.8972    7.5010    0.0000 C   0  0  1  0  0  0  0  0  0  0  0  0
    5.1962    8.2512    0.0000 O   0  0  0  0  0  0  0  0  0  0  0  0
    2.5976    8.2517    0.0000 C   0  0  0  0  0  0  0  0  0  0  0  0
    1.2987    7.5015    0.0000 C   0  0  0  0  0  0  0  0  0  0  0  0
   -0.0006    8.2510    0.0000 O   0  0  0  0  0  0  0  0  0  0  0  0
    1.2994    6.0006    0.0000 O   0  0  0  0  0  0  0  0  0  0  0  0
   -1.3000    3.0000    0.0000 O   0  0  0  0  0  0  0  0  0  0  0  0
   -2.5990    3.7500    0.0000 C   0  0  0  0  0  0  0  0  0  0  0  0
   -2.5990    5.2500    0.0000 O   0  0  0  0  0  0  0  0  0  0  0  0
   -3.8981    3.0000    0.0000 C   0  0  1  0  0  0  0  0  0  0  0  0
   -3.8981    1.5000    0.0000 C   0  0  0  0  0  0  0  0  0  0  0  0
   -5.1971    3.7500    0.0000 C   0  0  0  0  0  0  0  0  0  0  0  0
   -6.4962    3.0000    0.0000 C   0  0  0  0  0  0  0  0  0  0  0  0
  2  1  1  1  0  0  0 
  2  3  1  0  0  0  0 
  3  4  1  0  0  0  0 
  4  5  1  0  0  0  0 
  5  6  1  6  0  0  0 
  5  7  1  0  0  0  0 
  7  8  2  0  0  0  0 
  2  8  1  0  0  0  0 
  8  9  1  0  0  0  0 
  9 10  2  0  0  0  0 
 10 11  1  0  0  0  0 
 11 12  1  1  0  0  0 
 11 13  1  0  0  0  0 
  2 13  1  0  0  0  0 
 13 14  1  1  0  0  0 
 14 15  1  0  0  0  0 
 16 15  1  1  0  0  0 
 16 17  1  0  0  0  0 
 17 18  1  0  0  0  0 
 18 19  1  6  0  0  0 
 18 20  1  0  0  0  0 
 20 21  1  0  0  0  0 
 21 22  2  0  0  0  0 
 21 23  1  0  0  0  0 
 16 23  1  0  0  0  0 
  3 24  1  6  0  0  0 
 24 25  1  0  0  0  0 
 25 26  2  0  0  0  0 
 25 27  1  0  0  0  0 
 27 28  1  1  0  0  0 
 27 29  1  0  0  0  0 
 29 30  1  0  0  0  0 
M  END
> <SMILES>
[H][C@]12[C@H](C[C@@H](C)C=C1C=C[C@H](C)[C@@H]2CC[C@@H]1C[C@@H](O)CC(=O)O1)OC(=O)[C@@H](C)CC

$$$$

  CDK     06141809482D

 25 27  0  0  1  0  0  0  0  0999 V2000
    6.2237    1.9887    0.0000 H   0  0  0  0  0  0  0  0  0  0  0  0
    4.7465    1.7281    0.0000 C   0  0  2  0  0  0  0  0  0  0  0  0
    3.2692    1.9884    0.0000 O   0  0  0  0  0  0  0  0  0  0  0  0
    2.3052    0.8392    0.0000 C   0  0  0  0  0  0  0  0  0  0  0  0
    2.8138   -0.5636    0.0000 C   0  0  0  0  0  0  0  0  0  0  0  0
    1.8517   -1.7144    0.0000 C   0  0  0  0  0  0  0  0  0  0  0  0
    0.3809   -1.4623    0.0000 C   0  0  0  0  0  0  0  0  0  0  0  0
   -0.1354   -0.0531    0.0000 C   0  0  0  0  0  0  0  0  0  0  0  0
    0.8268    1.0977    0.0000 C   0  0  0  0  0  0  0  0  0  0  0  0
    0.3115    2.5064    0.0000 O   0  0  0  0  0  0  0  0  0  0  0  0
   -1.1662    2.7645    0.0000 C   0  0  0  0  0  0  0  0  0  0  0  0
   -1.6815    4.1732    0.0000 C   0  0  0  0  0  0  0  0  0  0  0  0
    4.7463    3.2281    0.0000 C   0  0  0  0  0  0  0  0  0  0  0  0
    3.4462    3.9779    0.0000 C   0  0  0  0  0  0  0  0  0  0  0  0
    3.4461    5.4779    0.0000 C   0  0  0  0  0  0  0  0  0  0  0  0
    4.7460    6.2281    0.0000 C   0  0  0  0  0  0  0  0  0  0  0  0
    6.0461    5.4782    0.0000 C   0  0  0  0  0  0  0  0  0  0  0  0
    6.0462    3.9782    0.0000 C   0  0  0  0  0  0  0  0  0  0  0  0
    5.2597    0.3186    0.0000 C   0  0  1  0  0  0  0  0  0  0  0  0
    3.7825    0.0578    0.0000 H   0  0  0  0  0  0  0  0  0  0  0  0
    6.5587    1.0686    0.0000 C   0  0  0  0  0  0  0  0  0  0  0  0
    7.8582    0.3178    0.0000 N   0  0  0  0  0  0  0  0  0  0  0  0
    7.8587   -1.1831    0.0000 C   0  0  0  0  0  0  0  0  0  0  0  0
    6.5597   -1.9331    0.0000 C   0  0  0  0  0  0  0  0  0  0  0  0
    5.2601   -1.1822    0.0000 O   0  0  0  0  0  0  0  0  0  0  0  0
  2  1  1  1  0  0  0 
  2  3  1  0  0  0  0 
  3  4  1  0  0  0  0 
  4  5  2  0  0  0  0 
  5  6  1  0  0  0  0 
  6  7  2  0  0  0  0 
  7  8  1  0  0  0  0 
  8  9  2  0  0  0  0 
  4  9  1  0  0  0  0 
  9 10  1  0  0  0  0 
 10 11  1  0  0  0  0 
 11 12  1  0  0  0  0 
  2 13  1  6  0  0  0 
 13 14  2  0  0  0  0 
 14 15  1  0  0  0  0 
 15 16  2  0  0  0  0 
 16 17  1  0  0  0  0 
 17 18  2  0  0  0  0 
 13 18  1  0  0  0  0 
  2 19  1  0  0  0  0 
 19 20  1  6  0  0  0 
 19 21  1  0  0  0  0 
 21 22  1  0  0  0  0 
 22 23  1  0  0  0  0 
 23 24  1  0  0  0  0 
 24 25  1  0  0  0  0 
 19 25  1  1  0  0  0 
M  END
> <SMILES>
[H][C@@](OC1=CC=CC=C1OCC)(C1=CC=CC=C1)[C@@]1([H])CNCCO1

$$$$

  CDK     06141809482D

 19 21  0  0  0  0  0  0  0  0999 V2000
    2.0402    1.1218    0.0000 O   0  0  0  0  0  0  0  0  0  0  0  0
    0.5738    0.8063    0.0000 C   0  0  0  0  0  0  0  0  0  0  0  0
   -0.5346    1.8060    0.0000 N   0  0  0  0  0  0  0  0  0  0  0  0
   -1.8336    1.0560    0.0000 C   0  0  0  0  0  0  0  0  0  0  0  0
   -3.2042    1.6655    0.0000 O   0  0  0  0  0  0  0  0  0  0  0  0
   -1.5220   -0.4037    0.0000 C   0  0  0  0  0  0  0  0  0  0  0  0
   -0.0291   -0.5695    0.0000 N   0  0  0  0  0  0  0  0  0  0  0  0
   -3.0140   -0.5585    0.0000 C   0  0  0  0  0  0  0  0  0  0  0  0
   -3.6258   -1.9289    0.0000 C   0  0  0  0  0  0  0  0  0  0  0  0
   -5.1178   -2.0837    0.0000 C   0  0  0  0  0  0  0  0  0  0  0  0
   -5.9980   -0.8680    0.0000 C   0  0  0  0  0  0  0  0  0  0  0  0
   -5.3861    0.5024    0.0000 C   0  0  0  0  0  0  0  0  0  0  0  0
   -3.8941    0.6572    0.0000 C   0  0  0  0  0  0  0  0  0  0  0  0
   -1.5274   -1.9037    0.0000 C   0  0  0  0  0  0  0  0  0  0  0  0
   -0.2301   -2.6584    0.0000 C   0  0  0  0  0  0  0  0  0  0  0  0
   -0.2355   -4.1584    0.0000 C   0  0  0  0  0  0  0  0  0  0  0  0
   -1.5382   -4.9037    0.0000 C   0  0  0  0  0  0  0  0  0  0  0  0
   -2.8355   -4.1490    0.0000 C   0  0  0  0  0  0  0  0  0  0  0  0
   -2.8301   -2.6490    0.0000 C   0  0  0  0  0  0  0  0  0  0  0  0
  1  2  2  0  0  0  0 
  2  3  1  0  0  0  0 
  3  4  1  0  0  0  0 
  4  5  2  0  0  0  0 
  4  6  1  0  0  0  0 
  6  7  1  0  0  0  0 
  2  7  1  0  0  0  0 
  6  8  1  0  0  0  0 
  8  9  2  0  0  0  0 
  9 10  1  0  0  0  0 
 10 11  2  0  0  0  0 
 11 12  1  0  0  0  0 
 12 13  2  0  0  0  0 
  8 13  1  0  0  0  0 
  6 14  1  0  0  0  0 
 14 15  2  0  0  0  0 
 15 16  1  0  0  0  0 
 16 17  2  0  0  0  0 
 17 18  1  0  0  0  0 
 18 19  2  0  0  0  0 
 14 19  1  0  0  0  0 
M  END
> <SMILES>
O=C1NC(=O)C(N1)(C1=CC=CC=C1)C1=CC=CC=C1

$$$$

  CDK     06141809482D

 20 21  0  0  0  0  0  0  0  0999 V2000
   -1.3322   -0.7289    0.0000 C   0  0  0  0  0  0  0  0  0  0  0  0
   -1.3249    0.7711    0.0000 C   0  0  0  0  0  0  0  0  0  0  0  0
   -0.0221    1.5147    0.0000 C   0  0  0  0  0  0  0  0  0  0  0  0
   -0.0148    3.0147    0.0000 C   0  0  0  0  0  0  0  0  0  0  0  0
   -1.3101    3.7710    0.0000 C   0  0  0  0  0  0  0  0  0  0  0  0
   -2.6128    3.0274    0.0000 C   0  0  0  0  0  0  0  0  0  0  0  0
    1.2880    3.7583    0.0000 C   0  0  0  0  0  0  0  0  0  0  0  0
    1.2880    5.2583    0.0000 C   0  0  0  0  0  0  0  0  0  0  0  0
    2.5580    6.0083    0.0000 C   0  0  0  0  0  0  0  0  0  0  0  0
    3.9080    5.2583    0.0000 C   0  0  0  0  0  0  0  0  0  0  0  0
    5.2008    6.0189    0.0000 O   0  0  0  0  0  0  0  0  0  0  0  0
    3.9080    3.7583    0.0000 C   0  0  0  0  0  0  0  0  0  0  0  0
    2.5580    3.0083    0.0000 C   0  0  0  0  0  0  0  0  0  0  0  0
    1.2732    0.7583    0.0000 C   0  0  0  0  0  0  0  0  0  0  0  0
    2.5722    1.5083    0.0000 C   0  0  0  0  0  0  0  0  0  0  0  0
    3.8567    0.7834    0.0000 C   0  0  0  0  0  0  0  0  0  0  0  0
    3.8822   -0.7607    0.0000 C   0  0  0  0  0  0  0  0  0  0  0  0
    5.1874   -1.4999    0.0000 O   0  0  0  0  0  0  0  0  0  0  0  0
    2.5832   -1.5107    0.0000 C   0  0  0  0  0  0  0  0  0  0  0  0
    1.2587   -0.7166    0.0000 C   0  0  0  0  0  0  0  0  0  0  0  0
  1  2  1  0  0  0  0 
  2  3  1  4  0  0  0 
  3  4  2  0  0  0  0 
  4  5  1  0  0  0  0 
  5  6  1  0  0  0  0 
  4  7  1  0  0  0  0 
  7  8  2  0  0  0  0 
  8  9  1  0  0  0  0 
  9 10  2  0  0  0  0 
 10 11  1  0  0  0  0 
 10 12  1  0  0  0  0 
 12 13  2  0  0  0  0 
  7 13  1  0  0  0  0 
  3 14  1  0  0  0  0 
 14 15  2  0  0  0  0 
 15 16  1  0  0  0  0 
 16 17  2  0  0  0  0 
 17 18  1  0  0  0  0 
 17 19  1  0  0  0  0 
 19 20  2  0  0  0  0 
 14 20  1  0  0  0  0 
M  END
> <SMILES>
CCC(=C(CC)C1=CC=C(O)C=C1)C1=CC=C(O)C=C1

$$$$

  CDK     06141809482D

 28 31  0  0  0  0  0  0  0  0999 V2000
    0.0008    7.5006    0.0000 C   0  0  0  0  0  0  0  0  0  0  0  0
    0.0006    6.0006    0.0000 O   0  0  0  0  0  0  0  0  0  0  0  0
   -1.2986    5.2508    0.0000 C   0  0  0  0  0  0  0  0  0  0  0  0
   -1.2990    3.7500    0.0000 C   0  0  0  0  0  0  0  0  0  0  0  0
    0.0000    3.0000    0.0000 N   0  0  0  0  0  0  0  0  0  0  0  0
    0.0000    1.5000    0.0000 C   0  0  0  0  0  0  0  0  0  0  0  0
    1.3000    0.7500    0.0000 C   0  0  0  0  0  0  0  0  0  0  0  0
    2.6000    1.5000    0.0000 C   0  0  0  0  0  0  0  0  0  0  0  0
    3.9000    0.7500    0.0000 C   0  0  0  0  0  0  0  0  0  0  0  0
    3.9000   -0.7500    0.0000 C   0  0  0  0  0  0  0  0  0  0  0  0
    2.6000   -1.5000    0.0000 C   0  0  0  0  0  0  0  0  0  0  0  0
    1.3000   -0.7500    0.0000 C   0  0  0  0  0  0  0  0  0  0  0  0
    0.0000   -1.5000    0.0000 N   0  0  0  0  0  0  0  0  0  0  0  0
   -1.3000   -0.7500    0.0000 C   0  0  0  0  0  0  0  0  0  0  0  0
   -2.6000   -1.5000    0.0000 C   0  0  0  0  0  0  0  0  0  0  0  0
   -3.9000   -0.7500    0.0000 C   0  0  0  0  0  0  0  0  0  0  0  0
   -3.9000    0.7500    0.0000 C   0  0  0  0  0  0  0  0  0  0  0  0
   -2.6000    1.5000    0.0000 C   0  0  0  0  0  0  0  0  0  0  0  0
   -1.3000    0.7500    0.0000 C   0  0  0  0  0  0  0  0  0  0  0  0
   -2.5986    2.9992    0.0000 C   0  0  0  0  0  0  0  0  0  0  0  0
   -3.8976    3.7492    0.0000 C   0  0  0  0  0  0  0  0  0  0  0  0
   -3.8971    5.2500    0.0000 C   0  0  0  0  0  0  0  0  0  0  0  0
   -5.1962    6.0000    0.0000 N   0  0  0  0  0  0  0  0  0  0  0  0
   -5.1962    7.5000    0.0000 S   0  0  0  0  0  0  0  0  0  0  0  0
   -6.4952    8.2500    0.0000 C   0  0  0  0  0  0  0  0  0  0  0  0
   -3.7189    7.2395    0.0000 O   0  0  0  0  0  0  0  0  0  0  0  0
   -4.6831    8.9095    0.0000 O   0  0  0  0  0  0  0  0  0  0  0  0
   -2.5976    6.0008    0.0000 C   0  0  0  0  0  0  0  0  0  0  0  0
  1  2  1  0  0  0  0 
  2  3  1  0  0  0  0 
  3  4  2  0  0  0  0 
  4  5  1  0  0  0  0 
  5  6  1  0  0  0  0 
  6  7  2  0  0  0  0 
  7  8  1  0  0  0  0 
  8  9  2  0  0  0  0 
  9 10  1  0  0  0  0 
 10 11  2  0  0  0  0 
 11 12  1  0  0  0  0 
  7 12  1  0  0  0  0 
 12 13  2  0  0  0  0 
 13 14  1  0  0  0  0 
 14 15  2  0  0  0  0 
 15 16  1  0  0  0  0 
 16 17  2  0  0  0  0 
 17 18  1  0  0  0  0 
 18 19  2  0  0  0  0 
  6 19  1  0  0  0  0 
 14 19  1  0  0  0  0 
  4 20  1  0  0  0  0 
 20 21  2  0  0  0  0 
 21 22  1  0  0  0  0 
 22 23  1  0  0  0  0 
 23 24  1  0  0  0  0 
 24 25  1  0  0  0  0 
 24 26  2  0  0  0  0 
 24 27  2  0  0  0  0 
 22 28  2  0  0  0  0 
  3 28  1  0  0  0  0 
M  END
> <SMILES>
COC1=C(NC2=C3C=CC=CC3=NC3=CC=CC=C23)C=CC(NS(C)(=O)=O)=C1

$$$$

  CDK     06141809482D

 23 24  0  0  1  0  0  0  0  0999 V2000
   -0.0120   -0.7611    0.0000 N   0  0  0  0  0  0  0  0  0  0  0  0
    0.0009    0.7388    0.0000 C   0  0  1  0  0  0  0  0  0  0  0  0
   -1.2916    1.5000    0.0000 C   0  0  0  0  0  0  0  0  0  0  0  0
   -2.5970    0.7612    0.0000 C   0  0  0  0  0  0  0  0  0  0  0  0
   -3.8712    1.5141    0.0000 C   0  0  0  0  0  0  0  0  0  0  0  0
   -5.1732    0.7851    0.0000 C   0  0  0  0  0  0  0  0  0  0  0  0
   -6.4633    1.5504    0.0000 I   0  0  0  0  0  0  0  0  0  0  0  0
   -5.1889   -0.7156    0.0000 C   0  0  0  0  0  0  0  0  0  0  0  0
   -6.4880   -1.4654    0.0000 O   0  0  0  0  0  0  0  0  0  0  0  0
   -7.7869   -0.7152    0.0000 C   0  0  0  0  0  0  0  0  0  0  0  0
   -9.0869   -1.4652    0.0000 C   0  0  0  0  0  0  0  0  0  0  0  0
  -10.3869   -0.7152    0.0000 C   0  0  0  0  0  0  0  0  0  0  0  0
  -11.6859   -1.4654    0.0000 I   0  0  0  0  0  0  0  0  0  0  0  0
  -10.3869    0.7848    0.0000 C   0  0  0  0  0  0  0  0  0  0  0  0
  -11.6859    1.5350    0.0000 O   0  0  0  0  0  0  0  0  0  0  0  0
   -9.0869    1.5348    0.0000 C   0  0  0  0  0  0  0  0  0  0  0  0
   -7.7869    0.7848    0.0000 C   0  0  0  0  0  0  0  0  0  0  0  0
   -3.8994   -1.4427    0.0000 C   0  0  0  0  0  0  0  0  0  0  0  0
   -3.9068   -2.9427    0.0000 I   0  0  0  0  0  0  0  0  0  0  0  0
   -2.6076   -0.7309    0.0000 C   0  0  0  0  0  0  0  0  0  0  0  0
    1.3064    1.4776    0.0000 C   0  0  0  0  0  0  0  0  0  0  0  0
    2.5989    0.7164    0.0000 O   0  0  0  0  0  0  0  0  0  0  0  0
    1.3193    2.9775    0.0000 O   0  0  0  0  0  0  0  0  0  0  0  0
  2  1  1  1  0  0  0 
  2  3  1  0  0  0  0 
  3  4  1  0  0  0  0 
  4  5  2  0  0  0  0 
  5  6  1  0  0  0  0 
  6  7  1  0  0  0  0 
  6  8  2  0  0  0  0 
  8  9  1  0  0  0  0 
  9 10  1  0  0  0  0 
 10 11  2  0  0  0  0 
 11 12  1  0  0  0  0 
 12 13  1  0  0  0  0 
 12 14  2  0  0  0  0 
 14 15  1  0  0  0  0 
 14 16  1  0  0  0  0 
 16 17  2  0  0  0  0 
 10 17  1  0  0  0  0 
  8 18  1  0  0  0  0 
 18 19  1  0  0  0  0 
 18 20  2  0  0  0  0 
  4 20  1  0  0  0  0 
  2 21  1  0  0  0  0 
 21 22  1  0  0  0  0 
 21 23  2  0  0  0  0 
M  END
> <SMILES>
N[C@@H](CC1=CC(I)=C(OC2=CC(I)=C(O)C=C2)C(I)=C1)C(O)=O

$$$$

  CDK     06141809482D

 17 17  0  0  0  0  0  0  0  0999 V2000
   -1.8800   -0.4185    0.0000 C   0  0  0  0  0  0  0  0  0  0  0  0
   -0.5808    0.3312    0.0000 C   0  0  0  0  0  0  0  0  0  0  0  0
    0.7181   -0.4190    0.0000 N   0  0  0  0  0  0  0  0  0  0  0  0
    0.7178   -1.9190    0.0000 C   0  0  0  0  0  0  0  0  0  0  0  0
   -0.5813   -2.6688    0.0000 C   0  0  0  0  0  0  0  0  0  0  0  0
    2.0172    0.3308    0.0000 C   0  0  0  0  0  0  0  0  0  0  0  0
    3.3162   -0.4194    0.0000 C   0  0  0  0  0  0  0  0  0  0  0  0
    3.3159   -1.9194    0.0000 O   0  0  0  0  0  0  0  0  0  0  0  0
    4.6153    0.3304    0.0000 N   0  0  0  0  0  0  0  0  0  0  0  0
    5.9142   -0.4198    0.0000 C   0  0  0  0  0  0  0  0  0  0  0  0
    5.9142   -1.9198    0.0000 C   0  0  0  0  0  0  0  0  0  0  0  0
    4.6153   -2.6700    0.0000 C   0  0  0  0  0  0  0  0  0  0  0  0
    7.2142   -2.6698    0.0000 C   0  0  0  0  0  0  0  0  0  0  0  0
    8.5142   -1.9198    0.0000 C   0  0  0  0  0  0  0  0  0  0  0  0
    8.5142   -0.4198    0.0000 C   0  0  0  0  0  0  0  0  0  0  0  0
    7.2142    0.3302    0.0000 C   0  0  0  0  0  0  0  0  0  0  0  0
    7.2142    1.8302    0.0000 C   0  0  0  0  0  0  0  0  0  0  0  0
  1  2  1  0  0  0  0 
  2  3  1  0  0  0  0 
  3  4  1  0  0  0  0 
  4  5  1  0  0  0  0 
  3  6  1  0  0  0  0 
  6  7  1  0  0  0  0 
  7  8  2  0  0  0  0 
  7  9  1  0  0  0  0 
  9 10  1  0  0  0  0 
 10 11  2  0  0  0  0 
 11 12  1  0  0  0  0 
 11 13  1  0  0  0  0 
 13 14  2  0  0  0  0 
 14 15  1  0  0  0  0 
 15 16  2  0  0  0  0 
 10 16  1  0  0  0  0 
 16 17  1  0  0  0  0 
M  END
> <SMILES>
CCN(CC)CC(=O)NC1=C(C)C=CC=C1C

$$$$

  CDK     06141809482D

 25 27  0  0  1  0  0  0  0  0999 V2000
   13.2423    6.7424    0.0000 C   0  0  0  0  0  0  0  0  0  0  0  0
   13.0857    5.2506    0.0000 C   0  0  2  0  0  0  0  0  0  0  0  0
   11.7957    6.0006    0.0000 C   0  0  0  0  0  0  0  0  0  0  0  0
   10.4957    5.2506    0.0000 C   0  0  0  0  0  0  0  0  0  0  0  0
   10.4957    3.7506    0.0000 C   0  0  0  0  0  0  0  0  0  0  0  0
   11.7957    3.0006    0.0000 C   0  0  0  0  0  0  0  0  0  0  0  0
   13.0857    3.7506    0.0000 C   0  0  0  0  0  0  0  0  0  0  0  0
   14.5157    3.2906    0.0000 C   0  0  0  0  0  0  0  0  0  0  0  0
   15.3957    4.5006    0.0000 C   0  0  0  0  0  0  0  0  0  0  0  0
   14.5157    5.7206    0.0000 C   0  0  0  0  0  0  0  0  0  0  0  0
   14.9793    7.1472    0.0000 O   0  0  0  0  0  0  0  0  0  0  0  0
   11.7957    1.5006    0.0000 C   0  0  0  0  0  0  0  0  0  0  0  0
   10.4957    0.7506    0.0000 C   0  0  0  0  0  0  0  0  0  0  0  0
    9.1957    1.5006    0.0000 C   0  0  0  0  0  0  0  0  0  0  0  0
    9.1957    3.0006    0.0000 C   0  0  0  0  0  0  0  0  0  0  0  0
    7.8957    3.7506    0.0000 C   0  0  0  0  0  0  0  0  0  0  0  0
    6.5957    3.0006    0.0000 C   0  0  0  0  0  0  0  0  0  0  0  0
    6.5957    1.5006    0.0000 C   0  0  0  0  0  0  0  0  0  0  0  0
    7.8957    0.7506    0.0000 C   0  0  0  0  0  0  0  0  0  0  0  0
    5.2968    0.7504    0.0000 O   0  0  0  0  0  0  0  0  0  0  0  0
    3.9977    1.5002    0.0000 S   0  0  0  0  0  0  0  0  0  0  0  0
    4.9617    2.6494    0.0000 O   0  0  0  0  0  0  0  0  0  0  0  0
    3.0333    2.6491    0.0000 O   0  0  0  0  0  0  0  0  0  0  0  0
    2.6987    0.7500    0.0000 O   0  0  0  0  0  0  0  0  0  0  0  0
    0.7500    1.8747    0.0000 Na  0  0  0  0  0  0  0  0  0  0  0  0
  2  1  1  1  0  0  0 
  2  3  1  0  0  0  0 
  3  4  1  0  0  0  0 
  4  5  1  0  0  0  0 
  5  6  1  0  0  0  0 
  6  7  1  0  0  0  0 
  2  7  1  0  0  0  0 
  7  8  1  0  0  0  0 
  8  9  1  0  0  0  0 
  9 10  1  0  0  0  0 
  2 10  1  0  0  0  0 
 10 11  2  0  0  0  0 
  6 12  1  0  0  0  0 
 12 13  1  0  0  0  0 
 13 14  1  0  0  0  0 
 14 15  2  0  0  0  0 
  5 15  1  0  0  0  0 
 15 16  1  0  0  0  0 
 16 17  2  0  0  0  0 
 17 18  1  0  0  0  0 
 18 19  2  0  0  0  0 
 14 19  1  0  0  0  0 
 18 20  1  0  0  0  0 
 20 21  1  0  0  0  0 
 21 22  2  0  0  0  0 
 21 23  2  0  0  0  0 
 21 24  1  0  0  0  0 
M  CHG  1  24  -1
M  CHG  1  25   1
M  END
> <SMILES>
C[C@]12CCC3C(C1CCC2=O)CCC4=C3C=CC(=C4)OS(=O)(=O)[O-].[Na+]

$$$$

  CDK     06141809482D

 24 27  0  0  1  0  0  0  0  0999 V2000
    3.7450    1.5233    0.0000 C   0  0  0  0  0  0  0  0  0  0  0  0
    2.2534    1.6822    0.0000 O   0  0  0  0  0  0  0  0  0  0  0  0
    1.3700    0.4700    0.0000 C   0  0  2  0  0  0  0  0  0  0  0  0
    2.8000    0.0000    0.0000 C   0  0  1  0  0  0  0  0  0  0  0  0
    4.1000   -0.7500    0.0000 N   0  0  0  0  0  0  0  0  0  0  0  0
    2.8000   -1.5000    0.0000 C   0  0  1  0  0  0  0  0  0  0  0  0
    1.3700   -1.9600    0.0000 C   0  0  0  0  0  0  0  0  0  0  0  0
    0.4900   -0.7500    0.0000 N   0  0  0  0  0  0  0  0  0  0  0  0
   -0.9400   -0.2800    0.0000 C   0  0  0  0  0  0  0  0  0  0  0  0
   -0.9400    1.2200    0.0000 C   0  0  0  0  0  0  0  0  0  0  0  0
    0.4900    1.6800    0.0000 C   0  0  1  0  0  0  0  0  0  0  0  0
    0.9553    3.1060    0.0000 C   0  0  0  0  0  0  0  0  0  0  0  0
    2.4229    3.4161    0.0000 O   0  0  0  0  0  0  0  0  0  0  0  0
    2.8882    4.8421    0.0000 C   0  0  0  0  0  0  0  0  0  0  0  0
    4.3558    5.1522    0.0000 N   0  0  0  0  0  0  0  0  0  0  0  0
    1.8858    5.9580    0.0000 O   0  0  0  0  0  0  0  0  0  0  0  0
   -2.2400    1.9700    0.0000 C   0  0  0  0  0  0  0  0  0  0  0  0
   -2.2400    3.4700    0.0000 O   0  0  0  0  0  0  0  0  0  0  0  0
   -3.5400    1.2200    0.0000 C   0  0  0  0  0  0  0  0  0  0  0  0
   -4.8389    1.9702    0.0000 N   0  0  0  0  0  0  0  0  0  0  0  0
   -3.5400   -0.2800    0.0000 C   0  0  0  0  0  0  0  0  0  0  0  0
   -4.8389   -1.0302    0.0000 C   0  0  0  0  0  0  0  0  0  0  0  0
   -2.2400   -1.0300    0.0000 C   0  0  0  0  0  0  0  0  0  0  0  0
   -2.2400   -2.5300    0.0000 O   0  0  0  0  0  0  0  0  0  0  0  0
  1  2  1  0  0  0  0 
  3  2  1  6  0  0  0 
  3  4  1  0  0  0  0 
  4  5  1  1  0  0  0 
  6  5  1  1  0  0  0 
  4  6  1  0  0  0  0 
  6  7  1  0  0  0  0 
  7  8  1  0  0  0  0 
  3  8  1  0  0  0  0 
  8  9  1  0  0  0  0 
  9 10  2  0  0  0  0 
 10 11  1  0  0  0  0 
  3 11  1  0  0  0  0 
 11 12  1  1  0  0  0 
 12 13  1  0  0  0  0 
 13 14  1  0  0  0  0 
 14 15  1  0  0  0  0 
 14 16  2  0  0  0  0 
 10 17  1  0  0  0  0 
 17 18  2  0  0  0  0 
 17 19  1  0  0  0  0 
 19 20  1  0  0  0  0 
 19 21  2  0  0  0  0 
 21 22  1  0  0  0  0 
 21 23  1  0  0  0  0 
  9 23  1  0  0  0  0 
 23 24  2  0  0  0  0 
M  END
> <SMILES>
CO[C@]12[C@H]3N[C@H]3CN1C1=C([C@H]2COC(N)=O)C(=O)C(N)=C(C)C1=O

$$$$

  CDK     06141809482D

 46 53  0  0  1  0  0  0  0  0999 V2000
    0.1370    0.8290    0.0000 H   0  0  0  0  0  0  0  0  0  0  0  0
    0.7500   -0.5400    0.0000 C   0  0  2  0  0  0  0  0  0  0  0  0
    1.7500   -1.6600    0.0000 C   0  0  0  0  0  0  0  0  0  0  0  0
    3.1200   -1.0500    0.0000 C   0  0  0  0  0  0  0  0  0  0  0  0
    2.9700    0.4400    0.0000 C   0  0  0  0  0  0  0  0  0  0  0  0
    1.5000    0.7600    0.0000 N   0  0  0  0  0  0  0  0  0  0  0  0
    0.7500    2.0500    0.0000 C   0  0  0  0  0  0  0  0  0  0  0  0
    1.4980    3.3502    0.0000 O   0  0  0  0  0  0  0  0  0  0  0  0
   -0.7500    2.0500    0.0000 C   0  0  2  0  0  0  0  0  0  0  0  0
   -1.4980    3.3502    0.0000 C   0  0  0  0  0  0  0  0  0  0  0  0
   -0.7461    4.6481    0.0000 C   0  0  0  0  0  0  0  0  0  0  0  0
   -1.4949    5.9487    0.0000 C   0  0  0  0  0  0  0  0  0  0  0  0
   -0.7430    7.2466    0.0000 C   0  0  0  0  0  0  0  0  0  0  0  0
    0.7579    7.2439    0.0000 C   0  0  0  0  0  0  0  0  0  0  0  0
    1.5067    5.9432    0.0000 C   0  0  0  0  0  0  0  0  0  0  0  0
    0.7548    4.6453    0.0000 C   0  0  0  0  0  0  0  0  0  0  0  0
   -1.5000    0.7600    0.0000 N   0  0  0  0  0  0  0  0  0  0  0  0
   -2.9700    0.4400    0.0000 C   0  0  0  0  0  0  0  0  0  0  0  0
   -4.0894    1.4385    0.0000 O   0  0  0  0  0  0  0  0  0  0  0  0
   -3.1200   -1.0500    0.0000 C   0  0  2  0  0  0  0  0  0  0  0  0
   -4.5881   -0.7424    0.0000 C   0  0  0  0  0  0  0  0  0  0  0  0
   -3.5815   -2.4773    0.0000 N   0  0  0  0  0  0  0  0  0  0  0  0
   -5.0482   -2.7912    0.0000 C   0  0  0  0  0  0  0  0  0  0  0  0
   -6.0535   -1.6780    0.0000 O   0  0  0  0  0  0  0  0  0  0  0  0
   -5.5097   -4.2185    0.0000 C   0  0  1  0  0  0  0  0  0  0  0  0
   -4.5022   -5.3242    0.0000 C   0  0  0  0  0  0  0  0  0  0  0  0
   -4.9661   -6.7507    0.0000 N   0  0  0  0  0  0  0  0  0  0  0  0
   -3.9596   -7.8629    0.0000 C   0  0  0  0  0  0  0  0  0  0  0  0
   -6.4374   -7.0715    0.0000 C   0  0  2  0  0  0  0  0  0  0  0  0
   -5.4309   -8.1837    0.0000 H   0  0  0  0  0  0  0  0  0  0  0  0
   -6.9012   -8.4980    0.0000 C   0  0  0  0  0  0  0  0  0  0  0  0
   -8.3568   -8.8028    0.0000 C   0  0  0  0  0  0  0  0  0  0  0  0
   -8.8206  -10.2293    0.0000 C   0  0  0  0  0  0  0  0  0  0  0  0
  -11.2932   -9.4253    0.0000 N   0  0  0  0  0  0  0  0  0  0  0  0
  -10.8294   -7.9988    0.0000 C   0  0  0  0  0  0  0  0  0  0  0  0
  -11.8368   -6.8931    0.0000 C   0  0  0  0  0  0  0  0  0  0  0  0
  -11.3730   -5.4666    0.0000 C   0  0  0  0  0  0  0  0  0  0  0  0
   -9.9017   -5.1458    0.0000 C   0  0  0  0  0  0  0  0  0  0  0  0
   -8.9004   -6.2706    0.0000 C   0  0  0  0  0  0  0  0  0  0  0  0
   -9.3643   -7.6971    0.0000 C   0  0  0  0  0  0  0  0  0  0  0  0
   -7.4291   -5.9498    0.0000 C   0  0  1  0  0  0  0  0  0  0  0  0
   -8.4356   -4.8376    0.0000 H   0  0  0  0  0  0  0  0  0  0  0  0
   -6.9653   -4.5233    0.0000 C   0  0  0  0  0  0  0  0  0  0  0  0
   -1.7500   -1.6600    0.0000 O   0  0  0  0  0  0  0  0  0  0  0  0
   -0.7500   -0.5400    0.0000 C   0  0  1  0  0  0  0  0  0  0  0  0
   -0.1370   -1.9090    0.0000 O   0  0  0  0  0  0  0  0  0  0  0  0
  2  1  1  6  0  0  0 
  2  3  1  0  0  0  0 
  3  4  1  0  0  0  0 
  4  5  1  0  0  0  0 
  5  6  1  0  0  0  0 
  2  6  1  0  0  0  0 
  6  7  1  0  0  0  0 
  7  8  2  0  0  0  0 
  7  9  1  0  0  0  0 
  9 10  1  1  0  0  0 
 10 11  1  0  0  0  0 
 11 12  2  0  0  0  0 
 12 13  1  0  0  0  0 
 13 14  2  0  0  0  0 
 14 15  1  0  0  0  0 
 15 16  2  0  0  0  0 
 11 16  1  0  0  0  0 
  9 17  1  0  0  0  0 
 17 18  1  0  0  0  0 
 18 19  2  0  0  0  0 
 18 20  1  0  0  0  0 
 20 21  1  6  0  0  0 
 20 22  1  1  0  0  0 
 22 23  1  0  0  0  0 
 23 24  2  0  0  0  0 
 25 23  1  1  0  0  0 
 25 26  1  0  0  0  0 
 26 27  1  0  0  0  0 
 27 28  1  0  0  0  0 
 27 29  1  0  0  0  0 
 29 30  1  1  0  0  0 
 29 31  1  0  0  0  0 
 31 32  1  0  0  0  0 
 32 33  2  0  0  0  0 
 33 34  1  0  0  0  0 
 34 35  1  0  0  0  0 
 35 36  2  0  0  0  0 
 36 37  1  0  0  0  0 
 37 38  2  0  0  0  0 
 38 39  1  0  0  0  0 
 39 40  2  0  0  0  0 
 32 40  1  0  0  0  0 
 35 40  1  0  0  0  0 
 39 41  1  0  0  0  0 
 29 41  1  0  0  0  0 
 41 42  1  6  0  0  0 
 41 43  1  0  0  0  0 
 25 43  1  0  0  0  0 
 20 44  1  0  0  0  0 
 44 45  1  0  0  0  0 
  2 45  1  0  0  0  0 
 17 45  1  0  0  0  0 
 45 46  1  1  0  0  0 
M  END
> <SMILES>
[H][C@@]12CCCN1C(=O)[C@H](CC1=CC=CC=C1)N1C(=O)[C@](C)(NC(=O)[C@H]3CN(C)[C@]4([H])CC5=CNC6=CC=CC(=C56)[C@@]4([H])C3)O[C@@]21O

$$$$

  CDK     06141809482D

 23 24  0  0  0  0  0  0  0  0999 V2000
   -5.1962    1.6705    0.0000 C   0  0  0  0  0  0  0  0  0  0  0  0
   -3.7189    1.4100    0.0000 C   0  0  0  0  0  0  0  0  0  0  0  0
   -2.7548    2.5591    0.0000 C   0  0  0  0  0  0  0  0  0  0  0  0
   -3.2678    3.9686    0.0000 O   0  0  0  0  0  0  0  0  0  0  0  0
   -1.2775    2.2986    0.0000 C   0  0  0  0  0  0  0  0  0  0  0  0
    0.0215    1.5486    0.0000 C   0  0  0  0  0  0  0  0  0  0  0  0
    1.3205    2.2986    0.0000 C   0  0  0  0  0  0  0  0  0  0  0  0
    1.3205    3.7986    0.0000 C   0  0  0  0  0  0  0  0  0  0  0  0
    2.6196    1.5486    0.0000 N   0  0  0  0  0  0  0  0  0  0  0  0
    3.9186    2.2986    0.0000 C   0  0  0  0  0  0  0  0  0  0  0  0
    2.6196    0.0486    0.0000 C   0  0  0  0  0  0  0  0  0  0  0  0
   -1.2775    3.7986    0.0000 C   0  0  0  0  0  0  0  0  0  0  0  0
   -2.5775    4.5486    0.0000 C   0  0  0  0  0  0  0  0  0  0  0  0
   -2.5775    6.0486    0.0000 C   0  0  0  0  0  0  0  0  0  0  0  0
   -1.2775    6.7986    0.0000 C   0  0  0  0  0  0  0  0  0  0  0  0
    0.0225    6.0486    0.0000 C   0  0  0  0  0  0  0  0  0  0  0  0
    0.0225    4.5486    0.0000 C   0  0  0  0  0  0  0  0  0  0  0  0
   -1.7906    0.8891    0.0000 C   0  0  0  0  0  0  0  0  0  0  0  0
   -0.8255   -0.2603    0.0000 C   0  0  0  0  0  0  0  0  0  0  0  0
   -1.3385   -1.6699    0.0000 C   0  0  0  0  0  0  0  0  0  0  0  0
   -2.8166   -1.9300    0.0000 C   0  0  0  0  0  0  0  0  0  0  0  0
   -3.7817   -0.7806    0.0000 C   0  0  0  0  0  0  0  0  0  0  0  0
   -3.2687    0.6289    0.0000 C   0  0  0  0  0  0  0  0  0  0  0  0
  1  2  1  0  0  0  0 
  2  3  1  0  0  0  0 
  3  4  2  0  0  0  0 
  3  5  1  0  0  0  0 
  5  6  1  0  0  0  0 
  6  7  1  0  0  0  0 
  7  8  1  0  0  0  0 
  7  9  1  0  0  0  0 
  9 10  1  0  0  0  0 
  9 11  1  0  0  0  0 
  5 12  1  0  0  0  0 
 12 13  2  0  0  0  0 
 13 14  1  0  0  0  0 
 14 15  2  0  0  0  0 
 15 16  1  0  0  0  0 
 16 17  2  0  0  0  0 
 12 17  1  0  0  0  0 
  5 18  1  0  0  0  0 
 18 19  2  0  0  0  0 
 19 20  1  0  0  0  0 
 20 21  2  0  0  0  0 
 21 22  1  0  0  0  0 
 22 23  2  0  0  0  0 
 18 23  1  0  0  0  0 
M  END
> <SMILES>
CCC(=O)C(CC(C)N(C)C)(C1=CC=CC=C1)C1=CC=CC=C1

$$$$

  CDK     06141809482D

 22 25  0  0  0  0  0  0  0  0999 V2000
    2.5521    7.0710    0.0000 C   0  0  0  0  0  0  0  0  0  0  0  0
    1.5318    5.9715    0.0000 N   0  0  0  0  0  0  0  0  0  0  0  0
    0.0686    6.3052    0.0000 C   0  0  0  0  0  0  0  0  0  0  0  0
   -0.9528    5.2055    0.0000 C   0  0  0  0  0  0  0  0  0  0  0  0
   -0.5109    3.7721    0.0000 N   0  0  0  0  0  0  0  0  0  0  0  0
    0.9524    3.4383    0.0000 C   0  0  0  0  0  0  0  0  0  0  0  0
    1.9737    4.5380    0.0000 C   0  0  0  0  0  0  0  0  0  0  0  0
   -1.5312    2.6725    0.0000 C   0  0  0  0  0  0  0  0  0  0  0  0
   -2.9645    3.1146    0.0000 N   0  0  0  0  0  0  0  0  0  0  0  0
   -4.2039    2.2696    0.0000 C   0  0  0  0  0  0  0  0  0  0  0  0
   -5.4432    3.1146    0.0000 C   0  0  0  0  0  0  0  0  0  0  0  0
   -6.7947    2.4638    0.0000 C   0  0  0  0  0  0  0  0  0  0  0  0
   -6.9068    0.9680    0.0000 C   0  0  0  0  0  0  0  0  0  0  0  0
   -5.6674    0.1230    0.0000 C   0  0  0  0  0  0  0  0  0  0  0  0
   -4.3160    0.7738    0.0000 C   0  0  0  0  0  0  0  0  0  0  0  0
   -3.2164   -0.2464    0.0000 N   0  0  0  0  0  0  0  0  0  0  0  0
   -1.7331   -0.0229    0.0000 C   0  0  0  0  0  0  0  0  0  0  0  0
   -0.9831    1.2762    0.0000 C   0  0  0  0  0  0  0  0  0  0  0  0
    0.4841    0.9643    0.0000 C   0  0  0  0  0  0  0  0  0  0  0  0
    0.6409   -0.5275    0.0000 C   0  0  0  0  0  0  0  0  0  0  0  0
    1.9399   -1.2775    0.0000 C   0  0  0  0  0  0  0  0  0  0  0  0
   -0.7294   -1.1376    0.0000 S   0  0  0  0  0  0  0  0  0  0  0  0
  1  2  1  0  0  0  0 
  2  3  1  0  0  0  0 
  3  4  1  0  0  0  0 
  4  5  1  0  0  0  0 
  5  6  1  0  0  0  0 
  6  7  1  0  0  0  0 
  2  7  1  0  0  0  0 
  5  8  1  0  0  0  0 
  8  9  2  0  0  0  0 
  9 10  1  0  0  0  0 
 10 11  2  0  0  0  0 
 11 12  1  0  0  0  0 
 12 13  2  0  0  0  0 
 13 14  1  0  0  0  0 
 14 15  2  0  0  0  0 
 10 15  1  0  0  0  0 
 15 16  1  0  0  0  0 
 16 17  1  0  0  0  0 
 17 18  2  0  0  0  0 
  8 18  1  0  0  0  0 
 18 19  1  0  0  0  0 
 19 20  2  0  0  0  0 
 20 21  1  0  0  0  0 
 20 22  1  0  0  0  0 
 17 22  1  0  0  0  0 
M  END
> <SMILES>
CN1CCN(CC1)C1=NC2=CC=CC=C2NC2=C1C=C(C)S2

$$$$

  CDK     06141809482D

 24 26  0  0  0  0  0  0  0  0999 V2000
   -4.9081   -0.7504    0.0000 C   0  0  0  0  0  0  0  0  0  0  0  0
   -3.6089   -1.5002    0.0000 O   0  0  0  0  0  0  0  0  0  0  0  0
   -2.3100   -0.7500    0.0000 C   0  0  0  0  0  0  0  0  0  0  0  0
   -1.0100   -1.5000    0.0000 C   0  0  0  0  0  0  0  0  0  0  0  0
    0.2900   -0.7500    0.0000 C   0  0  0  0  0  0  0  0  0  0  0  0
    0.2900    0.7500    0.0000 C   0  0  0  0  0  0  0  0  0  0  0  0
   -1.0100    1.5000    0.0000 C   0  0  0  0  0  0  0  0  0  0  0  0
   -2.3100    0.7500    0.0000 C   0  0  0  0  0  0  0  0  0  0  0  0
    1.7200    1.2100    0.0000 N   0  0  0  0  0  0  0  0  0  0  0  0
    2.6000    0.0000    0.0000 C   0  0  0  0  0  0  0  0  0  0  0  0
    1.7200   -1.2100    0.0000 N   0  0  0  0  0  0  0  0  0  0  0  0
    4.1000   -0.0000    0.0000 S   0  0  0  0  0  0  0  0  0  0  0  0
    4.8500   -1.2990    0.0000 O   0  0  0  0  0  0  0  0  0  0  0  0
    4.8500    1.2990    0.0000 C   0  0  0  0  0  0  0  0  0  0  0  0
    6.3500    1.2990    0.0000 C   0  0  0  0  0  0  0  0  0  0  0  0
    7.1006   -0.0006    0.0000 N   0  0  0  0  0  0  0  0  0  0  0  0
    8.6015   -0.0013    0.0000 C   0  0  0  0  0  0  0  0  0  0  0  0
    9.3517    1.2976    0.0000 C   0  0  0  0  0  0  0  0  0  0  0  0
   10.8517    1.2976    0.0000 C   0  0  0  0  0  0  0  0  0  0  0  0
    8.6010    2.5972    0.0000 C   0  0  0  0  0  0  0  0  0  0  0  0
    9.3512    3.8962    0.0000 O   0  0  0  0  0  0  0  0  0  0  0  0
   10.8512    3.8959    0.0000 C   0  0  0  0  0  0  0  0  0  0  0  0
    7.1002    2.5980    0.0000 C   0  0  0  0  0  0  0  0  0  0  0  0
    6.3506    3.8972    0.0000 C   0  0  0  0  0  0  0  0  0  0  0  0
  1  2  1  0  0  0  0 
  2  3  1  0  0  0  0 
  3  4  2  0  0  0  0 
  4  5  1  0  0  0  0 
  5  6  2  0  0  0  0 
  6  7  1  0  0  0  0 
  7  8  2  0  0  0  0 
  3  8  1  0  0  0  0 
  6  9  1  0  0  0  0 
  9 10  2  0  0  0  0 
 10 11  1  0  0  0  0 
  5 11  1  0  0  0  0 
 10 12  1  0  0  0  0 
 12 13  2  0  0  0  0 
 12 14  1  0  0  0  0 
 14 15  1  0  0  0  0 
 15 16  2  0  0  0  0 
 16 17  1  0  0  0  0 
 17 18  2  0  0  0  0 
 18 19  1  0  0  0  0 
 18 20  1  0  0  0  0 
 20 21  1  0  0  0  0 
 21 22  1  0  0  0  0 
 20 23  2  0  0  0  0 
 15 23  1  0  0  0  0 
 23 24  1  0  0  0  0 
M  END
> <SMILES>
COC1=CC2=C(C=C1)N=C(N2)S(=O)CC1=NC=C(C)C(OC)=C1C

$$$$

  CDK     06141809482D

 35 38  0  0  0  0  0  0  0  0999 V2000
   10.2738   -4.5026    0.0000 C   0  0  0  0  0  0  0  0  0  0  0  0
    8.9748   -5.2526    0.0000 C   0  0  0  0  0  0  0  0  0  0  0  0
    8.0106   -6.4016    0.0000 C   0  0  0  0  0  0  0  0  0  0  0  0
    9.9390   -6.4016    0.0000 C   0  0  0  0  0  0  0  0  0  0  0  0
    7.6758   -4.5026    0.0000 C   0  0  0  0  0  0  0  0  0  0  0  0
    7.6936   -3.0535    0.0000 C   0  0  0  0  0  0  0  0  0  0  0  0
    6.4421   -2.2635    0.0000 C   0  0  0  0  0  0  0  0  0  0  0  0
    5.1538   -3.0286    0.0000 C   0  0  0  0  0  0  0  0  0  0  0  0
    5.1359   -4.4777    0.0000 C   0  0  0  0  0  0  0  0  0  0  0  0
    6.3875   -5.2677    0.0000 C   0  0  0  0  0  0  0  0  0  0  0  0
    3.8548   -2.2786    0.0000 C   0  0  0  0  0  0  0  0  0  0  0  0
    3.8548   -0.7786    0.0000 O   0  0  0  0  0  0  0  0  0  0  0  0
    2.5557   -3.0286    0.0000 C   0  0  0  0  0  0  0  0  0  0  0  0
    1.2567   -2.2786    0.0000 C   0  0  0  0  0  0  0  0  0  0  0  0
   -0.0424   -3.0286    0.0000 C   0  0  0  0  0  0  0  0  0  0  0  0
   -1.3414   -2.2786    0.0000 N   0  0  0  0  0  0  0  0  0  0  0  0
   -2.6409   -3.0294    0.0000 C   0  0  0  0  0  0  0  0  0  0  0  0
   -3.9399   -2.2794    0.0000 C   0  0  0  0  0  0  0  0  0  0  0  0
   -3.9395   -0.7786    0.0000 C   0  0  0  0  0  0  0  0  0  0  0  0
   -2.6399   -0.0278    0.0000 C   0  0  0  0  0  0  0  0  0  0  0  0
   -1.3409   -0.7778    0.0000 C   0  0  0  0  0  0  0  0  0  0  0  0
   -5.2385   -0.0286    0.0000 C   0  0  0  0  0  0  0  0  0  0  0  0
   -4.2743    1.1204    0.0000 O   0  0  0  0  0  0  0  0  0  0  0  0
   -6.5375   -0.7786    0.0000 C   0  0  0  0  0  0  0  0  0  0  0  0
   -6.5371   -2.2794    0.0000 C   0  0  0  0  0  0  0  0  0  0  0  0
   -7.8361   -3.0294    0.0000 C   0  0  0  0  0  0  0  0  0  0  0  0
   -9.1356   -2.2786    0.0000 C   0  0  0  0  0  0  0  0  0  0  0  0
   -9.1361   -0.7778    0.0000 C   0  0  0  0  0  0  0  0  0  0  0  0
   -7.8371   -0.0278    0.0000 C   0  0  0  0  0  0  0  0  0  0  0  0
   -6.2027    1.1204    0.0000 C   0  0  0  0  0  0  0  0  0  0  0  0
   -7.6806    0.8594    0.0000 C   0  0  0  0  0  0  0  0  0  0  0  0
   -8.6448    2.0084    0.0000 C   0  0  0  0  0  0  0  0  0  0  0  0
   -8.1311    3.4186    0.0000 C   0  0  0  0  0  0  0  0  0  0  0  0
   -6.6531    3.6797    0.0000 C   0  0  0  0  0  0  0  0  0  0  0  0
   -5.6889    2.5306    0.0000 C   0  0  0  0  0  0  0  0  0  0  0  0
  1  2  1  0  0  0  0 
  2  3  1  0  0  0  0 
  2  4  1  0  0  0  0 
  2  5  1  0  0  0  0 
  5  6  2  0  0  0  0 
  6  7  1  0  0  0  0 
  7  8  2  0  0  0  0 
  8  9  1  0  0  0  0 
  9 10  2  0  0  0  0 
  5 10  1  0  0  0  0 
  8 11  1  0  0  0  0 
 11 12  1  0  0  0  0 
 11 13  1  0  0  0  0 
 13 14  1  0  0  0  0 
 14 15  1  0  0  0  0 
 15 16  1  0  0  0  0 
 16 17  1  0  0  0  0 
 17 18  1  0  0  0  0 
 18 19  1  0  0  0  0 
 19 20  1  0  0  0  0 
 20 21  1  0  0  0  0 
 16 21  1  0  0  0  0 
 19 22  1  0  0  0  0 
 22 23  1  0  0  0  0 
 22 24  1  0  0  0  0 
 24 25  2  0  0  0  0 
 25 26  1  0  0  0  0 
 26 27  2  0  0  0  0 
 27 28  1  0  0  0  0 
 28 29  2  0  0  0  0 
 24 29  1  0  0  0  0 
 22 30  1  0  0  0  0 
 30 31  2  0  0  0  0 
 31 32  1  0  0  0  0 
 32 33  2  0  0  0  0 
 33 34  1  0  0  0  0 
 34 35  2  0  0  0  0 
 30 35  1  0  0  0  0 
M  END
> <SMILES>
CC(C)(C)C1=CC=C(C=C1)C(O)CCCN1CCC(CC1)C(O)(C1=CC=CC=C1)C1=CC=CC=C1

$$$$

  CDK     06141809482D

 20 22  0  0  0  0  0  0  0  0999 V2000
    2.5981   -7.1400    0.0000 C   0  0  0  0  0  0  0  0  0  0  0  0
    2.5981   -5.6400    0.0000 N   0  0  0  0  0  0  0  0  0  0  0  0
    1.2990   -4.8900    0.0000 C   0  0  0  0  0  0  0  0  0  0  0  0
    1.2990   -3.3900    0.0000 C   0  0  0  0  0  0  0  0  0  0  0  0
   -0.0000   -2.6400    0.0000 C   0  0  0  0  0  0  0  0  0  0  0  0
    0.0000   -1.1400    0.0000 C   0  0  0  0  0  0  0  0  0  0  0  0
    1.3500   -0.4900    0.0000 C   0  0  0  0  0  0  0  0  0  0  0  0
    2.4500   -1.5100    0.0000 C   0  0  0  0  0  0  0  0  0  0  0  0
    3.8800   -1.0600    0.0000 C   0  0  0  0  0  0  0  0  0  0  0  0
    4.2200    0.4000    0.0000 C   0  0  0  0  0  0  0  0  0  0  0  0
    3.1200    1.4200    0.0000 C   0  0  0  0  0  0  0  0  0  0  0  0
    1.6900    0.9800    0.0000 C   0  0  0  0  0  0  0  0  0  0  0  0
    0.7500    2.1500    0.0000 C   0  0  0  0  0  0  0  0  0  0  0  0
   -0.7500    2.1500    0.0000 C   0  0  0  0  0  0  0  0  0  0  0  0
   -1.6900    0.9800    0.0000 C   0  0  0  0  0  0  0  0  0  0  0  0
   -3.1200    1.4200    0.0000 C   0  0  0  0  0  0  0  0  0  0  0  0
   -4.2200    0.4000    0.0000 C   0  0  0  0  0  0  0  0  0  0  0  0
   -3.8800   -1.0600    0.0000 C   0  0  0  0  0  0  0  0  0  0  0  0
   -2.4500   -1.5100    0.0000 C   0  0  0  0  0  0  0  0  0  0  0  0
   -1.3500   -0.4900    0.0000 C   0  0  0  0  0  0  0  0  0  0  0  0
  1  2  1  0  0  0  0 
  2  3  1  0  0  0  0 
  3  4  1  0  0  0  0 
  4  5  1  0  0  0  0 
  5  6  1  0  0  0  0 
  6  7  1  0  0  0  0 
  7  8  2  0  0  0  0 
  8  9  1  0  0  0  0 
  9 10  2  0  0  0  0 
 10 11  1  0  0  0  0 
 11 12  2  0  0  0  0 
  7 12  1  0  0  0  0 
 12 13  1  0  0  0  0 
 13 14  2  0  0  0  0 
 14 15  1  0  0  0  0 
 15 16  2  0  0  0  0 
 16 17  1  0  0  0  0 
 17 18  2  0  0  0  0 
 18 19  1  0  0  0  0 
 19 20  2  0  0  0  0 
  6 20  1  0  0  0  0 
 15 20  1  0  0  0  0 
M  END
> <SMILES>
CNCCCC1C2=CC=CC=C2C=CC2=CC=CC=C12

$$$$

  CDK     06141809482D

 14 14  0  0  0  0  0  0  0  0999 V2000
    2.5989   -1.5002    0.0000 N   0  0  0  0  0  0  0  0  0  0  0  0
    1.3000   -0.7500    0.0000 C   0  0  0  0  0  0  0  0  0  0  0  0
    0.0000   -1.5000    0.0000 C   0  0  0  0  0  0  0  0  0  0  0  0
   -1.3000   -0.7500    0.0000 C   0  0  0  0  0  0  0  0  0  0  0  0
   -1.3000    0.7500    0.0000 C   0  0  0  0  0  0  0  0  0  0  0  0
    0.0000    1.5000    0.0000 C   0  0  0  0  0  0  0  0  0  0  0  0
    1.3000    0.7500    0.0000 C   0  0  0  0  0  0  0  0  0  0  0  0
   -2.5989    1.5002    0.0000 C   0  0  0  0  0  0  0  0  0  0  0  0
   -2.5987    3.0002    0.0000 O   0  0  0  0  0  0  0  0  0  0  0  0
   -3.8981    0.7504    0.0000 N   0  0  0  0  0  0  0  0  0  0  0  0
   -5.1970    1.5006    0.0000 C   0  0  0  0  0  0  0  0  0  0  0  0
   -6.4962    0.7508    0.0000 C   0  0  0  0  0  0  0  0  0  0  0  0
   -7.7951    1.5010    0.0000 O   0  0  0  0  0  0  0  0  0  0  0  0
   -6.4964   -0.7492    0.0000 O   0  0  0  0  0  0  0  0  0  0  0  0
  1  2  1  0  0  0  0 
  2  3  2  0  0  0  0 
  3  4  1  0  0  0  0 
  4  5  2  0  0  0  0 
  5  6  1  0  0  0  0 
  6  7  2  0  0  0  0 
  2  7  1  0  0  0  0 
  5  8  1  0  0  0  0 
  8  9  2  0  0  0  0 
  8 10  1  0  0  0  0 
 10 11  1  0  0  0  0 
 11 12  1  0  0  0  0 
 12 13  1  0  0  0  0 
 12 14  2  0  0  0  0 
M  END
> <SMILES>
NC1=CC=C(C=C1)C(=O)NCC(O)=O

$$$$

  CDK     06141809482D

 21 23  0  0  0  0  0  0  0  0999 V2000
    0.5568   -3.1525    0.0000 C   0  0  0  0  0  0  0  0  0  0  0  0
    0.8900   -1.6900    0.0000 N   0  0  0  0  0  0  0  0  0  0  0  0
   -0.2800   -0.7500    0.0000 C   0  0  0  0  0  0  0  0  0  0  0  0
   -0.2800    0.7500    0.0000 C   0  0  0  0  0  0  0  0  0  0  0  0
   -1.5800    1.5000    0.0000 C   0  0  0  0  0  0  0  0  0  0  0  0
   -2.8800    0.7500    0.0000 C   0  0  0  0  0  0  0  0  0  0  0  0
   -4.1789    1.5002    0.0000 Cl  0  0  0  0  0  0  0  0  0  0  0  0
   -2.8800   -0.7500    0.0000 C   0  0  0  0  0  0  0  0  0  0  0  0
   -1.5800   -1.5000    0.0000 C   0  0  0  0  0  0  0  0  0  0  0  0
    0.8900    1.6900    0.0000 N   0  0  0  0  0  0  0  0  0  0  0  0
    0.5568    3.1525    0.0000 C   0  0  0  0  0  0  0  0  0  0  0  0
    1.6577    4.1726    0.0000 C   0  0  0  0  0  0  0  0  0  0  0  0
    1.3245    5.6351    0.0000 C   0  0  0  0  0  0  0  0  0  0  0  0
   -0.1096    6.0776    0.0000 C   0  0  0  0  0  0  0  0  0  0  0  0
   -1.2106    5.0575    0.0000 C   0  0  0  0  0  0  0  0  0  0  0  0
   -0.8773    3.5950    0.0000 C   0  0  0  0  0  0  0  0  0  0  0  0
    2.3500    1.3500    0.0000 C   0  0  0  0  0  0  0  0  0  0  0  0
    3.2879    2.5207    0.0000 O   0  0  0  0  0  0  0  0  0  0  0  0
    3.0000    0.0000    0.0000 C   0  0  0  0  0  0  0  0  0  0  0  0
    2.3500   -1.3500    0.0000 C   0  0  0  0  0  0  0  0  0  0  0  0
    3.2879   -2.5207    0.0000 O   0  0  0  0  0  0  0  0  0  0  0  0
  1  2  1  0  0  0  0 
  2  3  1  0  0  0  0 
  3  4  2  0  0  0  0 
  4  5  1  0  0  0  0 
  5  6  2  0  0  0  0 
  6  7  1  0  0  0  0 
  6  8  1  0  0  0  0 
  8  9  2  0  0  0  0 
  3  9  1  0  0  0  0 
  4 10  1  0  0  0  0 
 10 11  1  0  0  0  0 
 11 12  2  0  0  0  0 
 12 13  1  0  0  0  0 
 13 14  2  0  0  0  0 
 14 15  1  0  0  0  0 
 15 16  2  0  0  0  0 
 11 16  1  0  0  0  0 
 10 17  1  0  0  0  0 
 17 18  2  0  0  0  0 
 17 19  1  0  0  0  0 
 19 20  1  0  0  0  0 
  2 20  1  0  0  0  0 
 20 21  2  0  0  0  0 
M  END
> <SMILES>
CN1C2=C(C=C(Cl)C=C2)N(C2=CC=CC=C2)C(=O)CC1=O

$$$$

  CDK     06141809482D

 31 34  0  0  1  0  0  0  0  0999 V2000
    1.0626    0.6652    0.0000 H   0  0  0  0  0  0  0  0  0  0  0  0
    2.2744   -0.2189    0.0000 C   0  0  2  0  0  0  0  0  0  0  0  0
    3.7044   -0.6789    0.0000 C   0  0  0  0  0  0  0  0  0  0  0  0
    4.5844    0.5311    0.0000 C   0  0  0  0  0  0  0  0  0  0  0  0
    3.7044    1.7411    0.0000 C   0  0  2  0  0  0  0  0  0  0  0  0
    5.0040    2.4903    0.0000 O   0  0  0  0  0  0  0  0  0  0  0  0
    6.3025    1.7394    0.0000 C   0  0  0  0  0  0  0  0  0  0  0  0
    7.6021    2.4886    0.0000 C   0  0  0  0  0  0  0  0  0  0  0  0
    6.3015    0.2394    0.0000 O   0  0  0  0  0  0  0  0  0  0  0  0
    2.9024    3.5514    0.0000 C   0  0  0  0  0  0  0  0  0  0  0  0
    3.7862    4.7634    0.0000 C   0  0  0  0  0  0  0  0  0  0  0  0
    1.4109    3.7109    0.0000 O   0  0  0  0  0  0  0  0  0  0  0  0
    2.2744    1.2811    0.0000 C   0  0  2  0  0  0  0  0  0  0  0  0
    2.4332    2.7727    0.0000 C   0  0  0  0  0  0  0  0  0  0  0  0
    0.9744    2.0311    0.0000 C   0  0  0  0  0  0  0  0  0  0  0  0
   -0.3256    1.2811    0.0000 C   0  0  0  0  0  0  0  0  0  0  0  0
   -0.3256   -0.2189    0.0000 C   0  0  1  0  0  0  0  0  0  0  0  0
   -0.3263   -1.7189    0.0000 H   0  0  0  0  0  0  0  0  0  0  0  0
    0.9744   -0.9689    0.0000 C   0  0  1  0  0  0  0  0  0  0  0  0
    2.2734   -1.7191    0.0000 H   0  0  0  0  0  0  0  0  0  0  0  0
    0.9744   -2.4689    0.0000 C   0  0  0  0  0  0  0  0  0  0  0  0
   -0.3256   -3.2189    0.0000 C   0  0  0  0  0  0  0  0  0  0  0  0
   -0.3256   -4.7189    0.0000 C   0  0  0  0  0  0  0  0  0  0  0  0
   -1.6256   -2.4689    0.0000 C   0  0  0  0  0  0  0  0  0  0  0  0
   -2.9256   -3.2189    0.0000 C   0  0  0  0  0  0  0  0  0  0  0  0
   -4.2256   -2.4689    0.0000 C   0  0  0  0  0  0  0  0  0  0  0  0
   -5.5245   -3.2191    0.0000 O   0  0  0  0  0  0  0  0  0  0  0  0
   -4.2256   -0.9689    0.0000 C   0  0  0  0  0  0  0  0  0  0  0  0
   -2.9256   -0.2189    0.0000 C   0  0  0  0  0  0  0  0  0  0  0  0
   -1.6256   -0.9689    0.0000 C   0  0  2  0  0  0  0  0  0  0  0  0
   -1.6256    0.5311    0.0000 C   0  0  0  0  0  0  0  0  0  0  0  0
  2  1  1  6  0  0  0 
  2  3  1  0  0  0  0 
  3  4  1  0  0  0  0 
  4  5  1  0  0  0  0 
  5  6  1  6  0  0  0 
  6  7  1  0  0  0  0 
  7  8  1  0  0  0  0 
  7  9  2  0  0  0  0 
  5 10  1  1  0  0  0 
 10 11  1  0  0  0  0 
 10 12  2  0  0  0  0 
  5 13  1  0  0  0  0 
  2 13  1  0  0  0  0 
 13 14  1  1  0  0  0 
 13 15  1  0  0  0  0 
 15 16  1  0  0  0  0 
 16 17  1  0  0  0  0 
 17 18  1  6  0  0  0 
 17 19  1  0  0  0  0 
  2 19  1  0  0  0  0 
 19 20  1  1  0  0  0 
 19 21  1  0  0  0  0 
 21 22  2  0  0  0  0 
 22 23  1  0  0  0  0 
 22 24  1  0  0  0  0 
 24 25  2  0  0  0  0 
 25 26  1  0  0  0  0 
 26 27  2  0  0  0  0 
 26 28  1  0  0  0  0 
 28 29  1  0  0  0  0 
 29 30  1  0  0  0  0 
 17 30  1  0  0  0  0 
 24 30  1  0  0  0  0 
 30 31  1  1  0  0  0 
M  END
> <SMILES>
[H][C@@]12CC[C@](OC(C)=O)(C(C)=O)[C@@]1(C)CC[C@@]1([H])[C@@]2([H])C=C(C)C2=CC(=O)CC[C@]12C

$$$$

  CDK     06141809482D

 26 28  0  0  0  0  0  0  0  0999 V2000
    0.0010    3.7500    0.0000 O   0  0  0  0  0  0  0  0  0  0  0  0
    1.3000    3.0000    0.0000 C   0  0  0  0  0  0  0  0  0  0  0  0
    2.5990    3.7500    0.0000 C   0  0  0  0  0  0  0  0  0  0  0  0
    2.5993    5.2500    0.0000 C   0  0  0  0  0  0  0  0  0  0  0  0
    3.8994    5.9998    0.0000 C   0  0  0  0  0  0  0  0  0  0  0  0
    5.1993    5.2496    0.0000 C   0  0  0  0  0  0  0  0  0  0  0  0
    5.1990    3.7496    0.0000 C   0  0  0  0  0  0  0  0  0  0  0  0
    3.8989    2.9998    0.0000 N   0  0  0  0  0  0  0  0  0  0  0  0
    1.3000    1.5000    0.0000 C   0  0  0  0  0  0  0  0  0  0  0  0
    2.6000    0.7500    0.0000 C   0  0  0  0  0  0  0  0  0  0  0  0
    2.6000   -0.7500    0.0000 C   0  0  0  0  0  0  0  0  0  0  0  0
    1.3000   -1.5000    0.0000 N   0  0  0  0  0  0  0  0  0  0  0  0
   -0.0000   -0.7500    0.0000 C   0  0  0  0  0  0  0  0  0  0  0  0
   -0.0000    0.7500    0.0000 C   0  0  0  0  0  0  0  0  0  0  0  0
   -1.3000    1.5000    0.0000 C   0  0  0  0  0  0  0  0  0  0  0  0
   -2.6000    0.7500    0.0000 C   0  0  0  0  0  0  0  0  0  0  0  0
   -2.6000   -0.7500    0.0000 C   0  0  0  0  0  0  0  0  0  0  0  0
   -1.3000   -1.5000    0.0000 C   0  0  0  0  0  0  0  0  0  0  0  0
   -1.3000   -3.0000    0.0000 C   0  0  0  0  0  0  0  0  0  0  0  0
   -2.5990   -3.7500    0.0000 F   0  0  0  0  0  0  0  0  0  0  0  0
   -0.7870   -4.4095    0.0000 F   0  0  0  0  0  0  0  0  0  0  0  0
    0.1772   -2.7395    0.0000 F   0  0  0  0  0  0  0  0  0  0  0  0
    3.8989   -1.5002    0.0000 C   0  0  0  0  0  0  0  0  0  0  0  0
    3.8987   -3.0002    0.0000 F   0  0  0  0  0  0  0  0  0  0  0  0
    5.3761   -1.7609    0.0000 F   0  0  0  0  0  0  0  0  0  0  0  0
    4.4122   -0.0908    0.0000 F   0  0  0  0  0  0  0  0  0  0  0  0
  1  2  1  0  0  0  0 
  2  3  1  0  0  0  0 
  3  4  1  0  0  0  0 
  4  5  1  0  0  0  0 
  5  6  1  0  0  0  0 
  6  7  1  0  0  0  0 
  7  8  1  0  0  0  0 
  3  8  1  0  0  0  0 
  2  9  1  0  0  0  0 
  9 10  2  0  0  0  0 
 10 11  1  0  0  0  0 
 11 12  2  0  0  0  0 
 12 13  1  0  0  0  0 
 13 14  2  0  0  0  0 
  9 14  1  0  0  0  0 
 14 15  1  0  0  0  0 
 15 16  2  0  0  0  0 
 16 17  1  0  0  0  0 
 17 18  2  0  0  0  0 
 13 18  1  0  0  0  0 
 18 19  1  0  0  0  0 
 19 20  1  0  0  0  0 
 19 21  1  0  0  0  0 
 19 22  1  0  0  0  0 
 11 23  1  0  0  0  0 
 23 24  1  0  0  0  0 
 23 25  1  0  0  0  0 
 23 26  1  0  0  0  0 
M  END
> <SMILES>
OC(C1CCCCN1)C1=CC(=NC2=C1C=CC=C2C(F)(F)F)C(F)(F)F

$$$$

  CDK     06141809482D

 61 69  0  0  1  0  0  0  0  0999 V2000
  -11.1202    6.3039    0.0000 H   0  0  0  0  0  0  0  0  0  0  0  0
  -11.1216    4.8039    0.0000 C   0  0  2  0  0  0  0  0  0  0  0  0
  -11.1216    3.3031    0.0000 N   0  0  0  0  0  0  0  0  0  0  0  0
  -12.4209    2.5535    0.0000 C   0  0  0  0  0  0  0  0  0  0  0  0
   -9.8223    2.5518    0.0000 C   0  0  0  0  0  0  0  0  0  0  0  0
   -9.8223    1.0510    0.0000 C   0  0  0  0  0  0  0  0  0  0  0  0
   -8.5230    0.2997    0.0000 C   0  0  0  0  0  0  0  0  0  0  0  0
   -8.5238   -1.2003    0.0000 O   0  0  0  0  0  0  0  0  0  0  0  0
   -9.8232   -1.9496    0.0000 C   0  0  0  0  0  0  0  0  0  0  0  0
   -7.2238    1.0493    0.0000 C   0  0  0  0  0  0  0  0  0  0  0  0
   -7.2238    2.5502    0.0000 C   0  0  0  0  0  0  0  0  0  0  0  0
   -8.5230    3.3014    0.0000 C   0  0  0  0  0  0  0  0  0  0  0  0
   -9.8223    5.5535    0.0000 C   0  0  1  0  0  0  0  0  0  0  0  0
   -8.5230    4.8022    0.0000 C   0  0  0  0  0  0  0  0  0  0  0  0
   -7.2238    5.5518    0.0000 C   0  0  0  0  0  0  0  0  0  0  0  0
   -8.5230    7.8039    0.0000 N   0  0  0  0  0  0  0  0  0  0  0  0
   -8.5230    9.3047    0.0000 C   0  0  0  0  0  0  0  0  0  0  0  0
   -9.8223   10.0560    0.0000 C   0  0  0  0  0  0  0  0  0  0  0  0
  -11.1216    9.3064    0.0000 C   0  0  0  0  0  0  0  0  0  0  0  0
  -11.1216    7.8056    0.0000 C   0  0  2  0  0  0  0  0  0  0  0  0
  -12.4205    8.5558    0.0000 C   0  0  0  0  0  0  0  0  0  0  0  0
  -12.4203   10.0558    0.0000 C   0  0  0  0  0  0  0  0  0  0  0  0
   -9.8223    7.0543    0.0000 C   0  0  1  0  0  0  0  0  0  0  0  0
   -9.8216    8.5543    0.0000 H   0  0  0  0  0  0  0  0  0  0  0  0
  -12.4209    7.0560    0.0000 C   0  0  1  0  0  0  0  0  0  0  0  0
  -13.8981    6.7957    0.0000 H   0  0  0  0  0  0  0  0  0  0  0  0
  -13.0977    8.9167    0.0000 O   0  0  0  0  0  0  0  0  0  0  0  0
  -14.5748    9.1775    0.0000 C   0  0  0  0  0  0  0  0  0  0  0  0
  -15.0876   10.5872    0.0000 C   0  0  0  0  0  0  0  0  0  0  0  0
  -15.5393    8.0287    0.0000 O   0  0  0  0  0  0  0  0  0  0  0  0
  -12.4209    5.5552    0.0000 C   0  0  1  0  0  0  0  0  0  0  0  0
  -12.9345    4.1458    0.0000 O   0  0  0  0  0  0  0  0  0  0  0  0
  -13.8980    5.8159    0.0000 C   0  0  0  0  0  0  0  0  0  0  0  0
  -14.4108    7.2256    0.0000 O   0  0  0  0  0  0  0  0  0  0  0  0
  -14.8625    4.6671    0.0000 O   0  0  0  0  0  0  0  0  0  0  0  0
  -16.3396    4.9279    0.0000 C   0  0  0  0  0  0  0  0  0  0  0  0
   -5.9248    0.2991    0.0000 C   0  0  1  0  0  0  0  0  0  0  0  0
   -5.3062    1.6714    0.0000 C   0  0  0  0  0  0  0  0  0  0  0  0
   -6.4262    2.6755    0.0000 C   0  0  1  0  0  0  0  0  0  0  0  0
   -6.5380    4.1713    0.0000 H   0  0  0  0  0  0  0  0  0  0  0  0
   -7.7225    1.9285    0.0000 C   0  0  0  0  0  0  0  0  0  0  0  0
   -7.4164    0.4578    0.0000 N   0  0  0  0  0  0  0  0  0  0  0  0
   -6.1612   -0.1740    0.0000 C   0  0  0  0  0  0  0  0  0  0  0  0
   -4.9847    0.7020    0.0000 C   0  0  0  0  0  0  0  0  0  0  0  0
   -3.6151    0.0904    0.0000 C   0  0  0  0  0  0  0  0  0  0  0  0
   -2.4006    0.9708    0.0000 C   0  0  0  0  0  0  0  0  0  0  0  0
   -5.1179    2.1627    0.0000 C   0  0  0  0  0  0  0  0  0  0  0  0
   -8.0252   -0.9155    0.0000 C   0  0  0  0  0  0  0  0  0  0  0  0
   -6.9151   -1.9186    0.0000 C   0  0  0  0  0  0  0  0  0  0  0  0
   -5.6088   -1.1726    0.0000 C   0  0  0  0  0  0  0  0  0  0  0  0
   -4.5005   -2.1834    0.0000 N   0  0  0  0  0  0  0  0  0  0  0  0
   -5.1172   -3.5500    0.0000 C   0  0  0  0  0  0  0  0  0  0  0  0
   -4.5128   -4.9228    0.0000 C   0  0  0  0  0  0  0  0  0  0  0  0
   -5.3997   -6.1327    0.0000 C   0  0  0  0  0  0  0  0  0  0  0  0
   -6.8909   -5.9693    0.0000 C   0  0  0  0  0  0  0  0  0  0  0  0
   -7.4950   -4.5962    0.0000 C   0  0  0  0  0  0  0  0  0  0  0  0
   -6.6076   -3.3868    0.0000 C   0  0  0  0  0  0  0  0  0  0  0  0
   -4.4389    0.5043    0.0000 C   0  0  0  0  0  0  0  0  0  0  0  0
   -3.5183   -0.6800    0.0000 O   0  0  0  0  0  0  0  0  0  0  0  0
   -3.8737    1.8937    0.0000 O   0  0  0  0  0  0  0  0  0  0  0  0
   -2.3878    2.0989    0.0000 C   0  0  0  0  0  0  0  0  0  0  0  0
  2  1  1  6  0  0  0 
  2  3  1  0  0  0  0 
  3  4  1  0  0  0  0 
  3  5  1  0  0  0  0 
  5  6  2  0  0  0  0 
  6  7  1  0  0  0  0 
  7  8  1  0  0  0  0 
  8  9  1  0  0  0  0 
  7 10  2  0  0  0  0 
 10 11  1  0  0  0  0 
 11 12  2  0  0  0  0 
  5 12  1  0  0  0  0 
 13 12  1  1  0  0  0 
  2 13  1  0  0  0  0 
 13 14  1  6  0  0  0 
 14 15  1  0  0  0  0 
 15 16  1  0  0  0  0 
 16 17  1  0  0  0  0 
 17 18  1  0  0  0  0 
 18 19  2  0  0  0  0 
 19 20  1  0  0  0  0 
 20 21  1  1  0  0  0 
 21 22  1  0  0  0  0 
 20 23  1  0  0  0  0 
 13 23  1  0  0  0  0 
 16 23  1  0  0  0  0 
 23 24  1  1  0  0  0 
 20 25  1  0  0  0  0 
 25 26  1  1  0  0  0 
 25 27  1  6  0  0  0 
 27 28  1  0  0  0  0 
 28 29  1  0  0  0  0 
 28 30  2  0  0  0  0 
 25 31  1  0  0  0  0 
  2 31  1  0  0  0  0 
 31 32  1  6  0  0  0 
 31 33  1  1  0  0  0 
 33 34  2  0  0  0  0 
 33 35  1  0  0  0  0 
 35 36  1  0  0  0  0 
 37 10  1  6  0  0  0 
 37 38  1  1  0  0  0 
 38 39  1  0  0  0  0 
 39 40  1  6  0  0  0 
 39 41  1  0  0  0  0 
 41 42  1  0  0  0  0 
 42 43  1  0  0  0  0 
 43 44  1  0  0  0  0 
 44 45  1  0  0  0  0 
 45 46  1  0  0  0  0 
 44 47  2  0  0  0  0 
 39 47  1  0  0  0  0 
 42 48  1  0  0  0  0 
 48 49  1  0  0  0  0 
 49 50  2  0  0  0  0 
 37 50  1  0  0  0  0 
 50 51  1  0  0  0  0 
 51 52  1  0  0  0  0 
 52 53  2  0  0  0  0 
 53 54  1  0  0  0  0 
 54 55  2  0  0  0  0 
 55 56  1  0  0  0  0 
 56 57  2  0  0  0  0 
 49 57  1  0  0  0  0 
 52 57  1  0  0  0  0 
 37 58  1  0  0  0  0 
 58 59  2  0  0  0  0 
 58 60  1  0  0  0  0 
 60 61  1  0  0  0  0 
M  END
> <SMILES>
[H][C@@]12N(C)C3=CC(OC)=C(C=C3[C@@]11CCN3CC=C[C@](CC)([C@@]13[H])[C@@]([H])(OC(C)=O)[C@]2(O)C(=O)OC)[C@]1(C[C@@]2([H])CN(CC(CC)=C2)CC2=C1NC1=CC=CC=C21)C(=O)OC

$$$$

  CDK     06141809482D

 23 26  0  0  0  0  0  0  0  0999 V2000
   -3.3455   -7.3814    0.0000 C   0  0  0  0  0  0  0  0  0  0  0  0
   -2.6971   -6.0288    0.0000 N   0  0  0  0  0  0  0  0  0  0  0  0
   -1.2007   -5.9137    0.0000 C   0  0  0  0  0  0  0  0  0  0  0  0
   -0.5514   -4.5606    0.0000 C   0  0  0  0  0  0  0  0  0  0  0  0
   -1.3984   -3.3226    0.0000 N   0  0  0  0  0  0  0  0  0  0  0  0
   -2.8948   -3.4377    0.0000 C   0  0  0  0  0  0  0  0  0  0  0  0
   -3.5442   -4.7908    0.0000 C   0  0  0  0  0  0  0  0  0  0  0  0
   -0.7500   -1.9700    0.0000 C   0  0  0  0  0  0  0  0  0  0  0  0
    0.7500   -1.9700    0.0000 N   0  0  0  0  0  0  0  0  0  0  0  0
    1.6900   -0.8000    0.0000 C   0  0  0  0  0  0  0  0  0  0  0  0
    3.1200   -1.2400    0.0000 C   0  0  0  0  0  0  0  0  0  0  0  0
    4.2200   -0.2200    0.0000 C   0  0  0  0  0  0  0  0  0  0  0  0
    5.6543   -0.6592    0.0000 Cl  0  0  0  0  0  0  0  0  0  0  0  0
    3.8800    1.2400    0.0000 C   0  0  0  0  0  0  0  0  0  0  0  0
    2.4500    1.6800    0.0000 C   0  0  0  0  0  0  0  0  0  0  0  0
    1.3500    0.6600    0.0000 C   0  0  0  0  0  0  0  0  0  0  0  0
    0.0000    1.3100    0.0000 N   0  0  0  0  0  0  0  0  0  0  0  0
   -1.3500    0.6600    0.0000 C   0  0  0  0  0  0  0  0  0  0  0  0
   -2.4500    1.6800    0.0000 C   0  0  0  0  0  0  0  0  0  0  0  0
   -3.8800    1.2400    0.0000 C   0  0  0  0  0  0  0  0  0  0  0  0
   -4.2200   -0.2200    0.0000 C   0  0  0  0  0  0  0  0  0  0  0  0
   -3.1200   -1.2400    0.0000 C   0  0  0  0  0  0  0  0  0  0  0  0
   -1.6900   -0.8000    0.0000 C   0  0  0  0  0  0  0  0  0  0  0  0
  1  2  1  0  0  0  0 
  2  3  1  0  0  0  0 
  3  4  1  0  0  0  0 
  4  5  1  0  0  0  0 
  5  6  1  0  0  0  0 
  6  7  1  0  0  0  0 
  2  7  1  0  0  0  0 
  5  8  1  0  0  0  0 
  8  9  2  0  0  0  0 
  9 10  1  0  0  0  0 
 10 11  2  0  0  0  0 
 11 12  1  0  0  0  0 
 12 13  1  0  0  0  0 
 12 14  2  0  0  0  0 
 14 15  1  0  0  0  0 
 15 16  2  0  0  0  0 
 10 16  1  0  0  0  0 
 16 17  1  0  0  0  0 
 17 18  1  0  0  0  0 
 18 19  2  0  0  0  0 
 19 20  1  0  0  0  0 
 20 21  2  0  0  0  0 
 21 22  1  0  0  0  0 
 22 23  2  0  0  0  0 
  8 23  1  0  0  0  0 
 18 23  1  0  0  0  0 
M  END
> <SMILES>
CN1CCN(CC1)C1=NC2=CC(Cl)=CC=C2NC2=CC=CC=C12

$$$$

  CDK     06141809482D

 15 14  0  0  0  0  0  0  0  0999 V2000
    9.0933   -0.7500    0.0000 C   0  0  0  0  0  0  0  0  0  0  0  0
    7.7942   -0.0000    0.0000 C   0  0  0  0  0  0  0  0  0  0  0  0
    6.4952   -0.7500    0.0000 C   0  0  0  0  0  0  0  0  0  0  0  0
    5.1962   -0.0000    0.0000 C   0  0  0  0  0  0  0  0  0  0  0  0
    6.1603    1.1491    0.0000 C   0  0  0  0  0  0  0  0  0  0  0  0
    3.8971   -0.7500    0.0000 C   0  0  0  0  0  0  0  0  0  0  0  0
    2.5981   -0.0000    0.0000 O   0  0  0  0  0  0  0  0  0  0  0  0
    1.2990   -0.7500    0.0000 C   0  0  0  0  0  0  0  0  0  0  0  0
    0.0000    0.0000    0.0000 N   0  0  0  0  0  0  0  0  0  0  0  0
    1.2990   -2.2500    0.0000 O   0  0  0  0  0  0  0  0  0  0  0  0
    4.2320    1.1491    0.0000 C   0  0  0  0  0  0  0  0  0  0  0  0
    4.7450    2.5586    0.0000 O   0  0  0  0  0  0  0  0  0  0  0  0
    3.7808    3.7077    0.0000 C   0  0  0  0  0  0  0  0  0  0  0  0
    4.2938    5.1172    0.0000 N   0  0  0  0  0  0  0  0  0  0  0  0
    2.3036    3.4472    0.0000 O   0  0  0  0  0  0  0  0  0  0  0  0
  1  2  1  0  0  0  0 
  2  3  1  0  0  0  0 
  3  4  1  0  0  0  0 
  4  5  1  0  0  0  0 
  4  6  1  0  0  0  0 
  6  7  1  0  0  0  0 
  7  8  1  0  0  0  0 
  8  9  1  0  0  0  0 
  8 10  2  0  0  0  0 
  4 11  1  0  0  0  0 
 11 12  1  0  0  0  0 
 12 13  1  0  0  0  0 
 13 14  1  0  0  0  0 
 13 15  2  0  0  0  0 
M  END
> <SMILES>
CCCC(C)(COC(N)=O)COC(N)=O

$$$$

  CDK     06141809482D

 22 23  0  0  1  0  0  0  0  0999 V2000
   -2.3740    1.1586    0.0000 H   0  0  0  0  0  0  0  0  0  0  0  0
   -2.0118   -0.2970    0.0000 C   0  0  1  0  0  0  0  0  0  0  0  0
   -3.5082   -0.4010    0.0000 O   0  0  0  0  0  0  0  0  0  0  0  0
   -0.6412    0.3125    0.0000 C   0  0  0  0  0  0  0  0  0  0  0  0
   -0.4838    1.8042    0.0000 N   0  0  0  0  0  0  0  0  0  0  0  0
    0.8868    2.4137    0.0000 C   0  0  0  0  0  0  0  0  0  0  0  0
    1.0443    3.9054    0.0000 C   0  0  0  0  0  0  0  0  0  0  0  0
    1.2491    0.9581    0.0000 C   0  0  0  0  0  0  0  0  0  0  0  0
    2.3832    2.5177    0.0000 C   0  0  0  0  0  0  0  0  0  0  0  0
   -2.1693   -1.7887    0.0000 C   0  0  0  0  0  0  0  0  0  0  0  0
   -3.5398   -2.3982    0.0000 O   0  0  0  0  0  0  0  0  0  0  0  0
   -3.6973   -3.8899    0.0000 C   0  0  0  0  0  0  0  0  0  0  0  0
   -2.5889   -4.8897    0.0000 N   0  0  0  0  0  0  0  0  0  0  0  0
   -3.1918   -6.2654    0.0000 S   0  0  0  0  0  0  0  0  0  0  0  0
   -4.6847   -6.0997    0.0000 N   0  0  0  0  0  0  0  0  0  0  0  0
   -4.9963   -4.6399    0.0000 C   0  0  0  0  0  0  0  0  0  0  0  0
   -6.3669   -4.0304    0.0000 N   0  0  0  0  0  0  0  0  0  0  0  0
   -7.5802   -4.9124    0.0000 C   0  0  0  0  0  0  0  0  0  0  0  0
   -8.9513   -4.3019    0.0000 C   0  0  0  0  0  0  0  0  0  0  0  0
   -9.1090   -2.8094    0.0000 O   0  0  0  0  0  0  0  0  0  0  0  0
   -7.8958   -1.9274    0.0000 C   0  0  0  0  0  0  0  0  0  0  0  0
   -6.5247   -2.5379    0.0000 C   0  0  0  0  0  0  0  0  0  0  0  0
  2  1  1  6  0  0  0 
  2  3  1  1  0  0  0 
  2  4  1  0  0  0  0 
  4  5  1  0  0  0  0 
  5  6  1  0  0  0  0 
  6  7  1  0  0  0  0 
  6  8  1  0  0  0  0 
  6  9  1  0  0  0  0 
  2 10  1  0  0  0  0 
 10 11  1  0  0  0  0 
 11 12  1  0  0  0  0 
 12 13  2  0  0  0  0 
 13 14  1  0  0  0  0 
 14 15  1  0  0  0  0 
 15 16  2  0  0  0  0 
 12 16  1  0  0  0  0 
 16 17  1  0  0  0  0 
 17 18  1  0  0  0  0 
 18 19  1  0  0  0  0 
 19 20  1  0  0  0  0 
 20 21  1  0  0  0  0 
 21 22  1  0  0  0  0 
 17 22  1  0  0  0  0 
M  END
> <SMILES>
[H][C@](O)(CNC(C)(C)C)COC1=NSN=C1N1CCOCC1

$$$$

  CDK     06141809482D

 28 29  0  0  0  0  0  0  0  0999 V2000
   -6.4962   -0.2092    0.0000 C   0  0  0  0  0  0  0  0  0  0  0  0
   -5.1970    0.5406    0.0000 C   0  0  0  0  0  0  0  0  0  0  0  0
   -3.8981   -0.2096    0.0000 O   0  0  0  0  0  0  0  0  0  0  0  0
   -2.5989    0.5402    0.0000 C   0  0  0  0  0  0  0  0  0  0  0  0
   -2.5987    2.0402    0.0000 O   0  0  0  0  0  0  0  0  0  0  0  0
   -1.3000   -0.2100    0.0000 C   0  0  0  0  0  0  0  0  0  0  0  0
   -1.3000   -1.7100    0.0000 C   0  0  0  0  0  0  0  0  0  0  0  0
   -2.5989   -2.4602    0.0000 C   0  0  0  0  0  0  0  0  0  0  0  0
   -2.5987   -3.9602    0.0000 O   0  0  0  0  0  0  0  0  0  0  0  0
   -3.8976   -4.7104    0.0000 C   0  0  0  0  0  0  0  0  0  0  0  0
   -3.8974   -6.2104    0.0000 C   0  0  0  0  0  0  0  0  0  0  0  0
   -5.1963   -6.9606    0.0000 N   0  0  0  0  0  0  0  0  0  0  0  0
   -0.0000   -2.4600    0.0000 N   0  0  0  0  0  0  0  0  0  0  0  0
    1.3000   -1.7100    0.0000 C   0  0  0  0  0  0  0  0  0  0  0  0
    2.5989   -2.4602    0.0000 C   0  0  0  0  0  0  0  0  0  0  0  0
    1.3000   -0.2100    0.0000 C   0  0  0  0  0  0  0  0  0  0  0  0
   -0.0000    0.5400    0.0000 C   0  0  0  0  0  0  0  0  0  0  0  0
    0.0000    3.0000    0.0000 C   0  0  0  0  0  0  0  0  0  0  0  0
    1.3032    3.7519    0.0000 C   0  0  0  0  0  0  0  0  0  0  0  0
    1.2896    5.2518    0.0000 C   0  0  0  0  0  0  0  0  0  0  0  0
   -0.0074    6.0101    0.0000 C   0  0  0  0  0  0  0  0  0  0  0  0
   -1.3105    5.2482    0.0000 C   0  0  0  0  0  0  0  0  0  0  0  0
   -1.2969    3.7482    0.0000 C   0  0  0  0  0  0  0  0  0  0  0  0
   -2.5924    2.9921    0.0000 Cl  0  0  0  0  0  0  0  0  0  0  0  0
    2.5989    0.5402    0.0000 C   0  0  0  0  0  0  0  0  0  0  0  0
    2.5987    2.0402    0.0000 O   0  0  0  0  0  0  0  0  0  0  0  0
    3.8981   -0.2096    0.0000 O   0  0  0  0  0  0  0  0  0  0  0  0
    5.1970    0.5406    0.0000 C   0  0  0  0  0  0  0  0  0  0  0  0
  1  2  1  0  0  0  0 
  2  3  1  0  0  0  0 
  3  4  1  0  0  0  0 
  4  5  2  0  0  0  0 
  4  6  1  0  0  0  0 
  6  7  2  0  0  0  0 
  7  8  1  0  0  0  0 
  8  9  1  0  0  0  0 
  9 10  1  0  0  0  0 
 10 11  1  0  0  0  0 
 11 12  1  0  0  0  0 
  7 13  1  0  0  0  0 
 13 14  1  0  0  0  0 
 14 15  1  0  0  0  0 
 14 16  2  0  0  0  0 
 16 17  1  0  0  0  0 
  6 17  1  0  0  0  0 
 17 18  1  0  0  0  0 
 18 19  2  0  0  0  0 
 19 20  1  0  0  0  0 
 20 21  2  0  0  0  0 
 21 22  1  0  0  0  0 
 22 23  2  0  0  0  0 
 18 23  1  0  0  0  0 
 23 24  1  0  0  0  0 
 16 25  1  0  0  0  0 
 25 26  2  0  0  0  0 
 25 27  1  0  0  0  0 
 27 28  1  0  0  0  0 
M  END
> <SMILES>
CCOC(=O)C1=C(COCCN)NC(C)=C(C1C1=CC=CC=C1Cl)C(=O)OC

$$$$

  CDK     06141809482D

 15 17  0  0  0  0  0  0  0  0999 V2000
    0.0000    3.0000    0.0000 N   0  0  0  0  0  0  0  0  0  0  0  0
    0.0000    1.5000    0.0000 C   0  0  0  0  0  0  0  0  0  0  0  0
    1.3000    0.7500    0.0000 C   0  0  0  0  0  0  0  0  0  0  0  0
    2.6000    1.5000    0.0000 C   0  0  0  0  0  0  0  0  0  0  0  0
    3.9000    0.7500    0.0000 C   0  0  0  0  0  0  0  0  0  0  0  0
    3.9000   -0.7500    0.0000 C   0  0  0  0  0  0  0  0  0  0  0  0
    2.6000   -1.5000    0.0000 C   0  0  0  0  0  0  0  0  0  0  0  0
    1.3000   -0.7500    0.0000 C   0  0  0  0  0  0  0  0  0  0  0  0
    0.0000   -1.5000    0.0000 N   0  0  0  0  0  0  0  0  0  0  0  0
   -1.3000   -0.7500    0.0000 C   0  0  0  0  0  0  0  0  0  0  0  0
   -2.6000   -1.5000    0.0000 C   0  0  0  0  0  0  0  0  0  0  0  0
   -3.9000   -0.7500    0.0000 C   0  0  0  0  0  0  0  0  0  0  0  0
   -3.9000    0.7500    0.0000 C   0  0  0  0  0  0  0  0  0  0  0  0
   -2.6000    1.5000    0.0000 C   0  0  0  0  0  0  0  0  0  0  0  0
   -1.3000    0.7500    0.0000 C   0  0  0  0  0  0  0  0  0  0  0  0
  1  2  1  0  0  0  0 
  2  3  2  0  0  0  0 
  3  4  1  0  0  0  0 
  4  5  1  0  0  0  0 
  5  6  1  0  0  0  0 
  6  7  1  0  0  0  0 
  7  8  1  0  0  0  0 
  3  8  1  0  0  0  0 
  8  9  2  0  0  0  0 
  9 10  1  0  0  0  0 
 10 11  2  0  0  0  0 
 11 12  1  0  0  0  0 
 12 13  2  0  0  0  0 
 13 14  1  0  0  0  0 
 14 15  2  0  0  0  0 
  2 15  1  0  0  0  0 
 10 15  1  0  0  0  0 
M  END
> <SMILES>
NC1=C2CCCCC2=NC2=CC=CC=C12

$$$$

  CDK     06141809482D

 28 29  0  0  0  0  0  0  0  0999 V2000
    6.2744    1.7772    0.0000 C   0  0  0  0  0  0  0  0  0  0  0  0
    4.9754    2.5274    0.0000 O   0  0  0  0  0  0  0  0  0  0  0  0
    3.6763    1.7776    0.0000 C   0  0  0  0  0  0  0  0  0  0  0  0
    3.6760    0.2776    0.0000 O   0  0  0  0  0  0  0  0  0  0  0  0
    2.3774    2.5278    0.0000 C   0  0  0  0  0  0  0  0  0  0  0  0
    2.3774    4.0278    0.0000 C   0  0  0  0  0  0  0  0  0  0  0  0
    3.6763    4.7780    0.0000 C   0  0  0  0  0  0  0  0  0  0  0  0
    1.0774    4.7778    0.0000 N   0  0  0  0  0  0  0  0  0  0  0  0
   -0.2226    4.0278    0.0000 C   0  0  0  0  0  0  0  0  0  0  0  0
   -1.5216    4.7780    0.0000 C   0  0  0  0  0  0  0  0  0  0  0  0
   -0.2226    2.5278    0.0000 C   0  0  0  0  0  0  0  0  0  0  0  0
    1.0774    1.7778    0.0000 C   0  0  0  0  0  0  0  0  0  0  0  0
    1.0774   -1.1622    0.0000 C   0  0  0  0  0  0  0  0  0  0  0  0
    2.3578   -1.9046    0.0000 C   0  0  0  0  0  0  0  0  0  0  0  0
    2.3623   -3.3868    0.0000 C   0  0  0  0  0  0  0  0  0  0  0  0
    1.0864   -4.1266    0.0000 C   0  0  0  0  0  0  0  0  0  0  0  0
   -0.2262   -3.4006    0.0000 C   0  0  0  0  0  0  0  0  0  0  0  0
   -0.1986   -1.9020    0.0000 C   0  0  0  0  0  0  0  0  0  0  0  0
   -1.9051   -0.8978    0.0000 N   0  0  0  0  0  0  0  0  0  0  0  0
   -4.4633   -2.3466    0.0000 O   0  0  0  0  0  0  0  0  0  0  0  0
   -1.8846    1.5621    0.0000 O   0  0  0  0  0  0  0  0  0  0  0  0
   -2.9852    1.5218    0.0000 C   0  0  0  0  0  0  0  0  0  0  0  0
   -3.4120   -0.9009    0.0000 O   0  0  0  0  0  0  0  0  0  0  0  0
   -4.1344    2.4858    0.0000 O   0  0  0  0  0  0  0  0  0  0  0  0
   -5.5439    1.9726    0.0000 C   0  0  0  0  0  0  0  0  0  0  0  0
   -6.6931    2.9366    0.0000 C   0  0  0  0  0  0  0  0  0  0  0  0
   -8.1025    2.4233    0.0000 C   0  0  0  0  0  0  0  0  0  0  0  0
   -6.4328    4.4138    0.0000 C   0  0  0  0  0  0  0  0  0  0  0  0
  1  2  1  0  0  0  0 
  2  3  1  0  0  0  0 
  3  4  2  0  0  0  0 
  3  5  1  0  0  0  0 
  5  6  2  0  0  0  0 
  6  7  1  0  0  0  0 
  6  8  1  0  0  0  0 
  8  9  1  0  0  0  0 
  9 10  1  0  0  0  0 
  9 11  2  0  0  0  0 
 11 12  1  0  0  0  0 
  5 12  1  0  0  0  0 
 12 13  1  0  0  0  0 
 13 14  2  0  0  0  0 
 14 15  1  0  0  0  0 
 15 16  2  0  0  0  0 
 16 17  1  0  0  0  0 
 17 18  2  0  0  0  0 
 13 18  1  0  0  0  0 
 18 19  1  0  0  0  0 
 19 20  1  0  0  0  0 
 19 21  2  0  0  0  0 
 11 22  1  0  0  0  0 
 22 23  2  0  0  0  0 
 22 24  1  0  0  0  0 
 24 25  1  0  0  0  0 
 25 26  1  0  0  0  0 
 26 27  1  0  0  0  0 
 26 28  1  0  0  0  0 
M  CHG  1  19   1
M  CHG  1  20  -1
M  END
> <SMILES>
COC(=O)C1=C(C)NC(C)=C(C1C1=CC=CC=C1[N+]([O-])=O)C(=O)OCC(C)C

$$$$

  CDK     06141809482D

 33 37  0  0  1  0  0  0  0  0999 V2000
   -1.0306    1.3267    0.0000 H   0  0  0  0  0  0  0  0  0  0  0  0
   -1.1874   -0.1651    0.0000 C   0  0  2  0  0  0  0  0  0  0  0  0
   -0.8755   -1.6323    0.0000 C   0  0  0  0  0  0  0  0  0  0  0  0
    0.6162   -1.7891    0.0000 C   0  0  0  0  0  0  0  0  0  0  0  0
    1.2264   -0.4188    0.0000 C   0  0  2  0  0  0  0  0  0  0  0  0
    1.8365    0.9515    0.0000 C   0  0  0  0  0  0  0  0  0  0  0  0
    3.3282    0.7947    0.0000 C   0  0  0  0  0  0  0  0  0  0  0  0
    3.6401   -0.6725    0.0000 C   0  0  0  0  0  0  0  0  0  0  0  0
    5.0104   -1.2826    0.0000 O   0  0  0  0  0  0  0  0  0  0  0  0
    2.3411   -1.4225    0.0000 O   0  0  0  0  0  0  0  0  0  0  0  0
    0.1116    0.5849    0.0000 C   0  0  2  0  0  0  0  0  0  0  0  0
    2.3590    1.5855    0.0000 C   0  0  0  0  0  0  0  0  0  0  0  0
    0.1116    2.0849    0.0000 C   0  0  0  0  0  0  0  0  0  0  0  0
   -1.1874    2.8349    0.0000 C   0  0  0  0  0  0  0  0  0  0  0  0
   -2.4864    2.0849    0.0000 C   0  0  1  0  0  0  0  0  0  0  0  0
   -3.7855    1.3349    0.0000 H   0  0  0  0  0  0  0  0  0  0  0  0
   -2.4864    0.5849    0.0000 C   0  0  1  0  0  0  0  0  0  0  0  0
   -2.4864   -0.9151    0.0000 H   0  0  0  0  0  0  0  0  0  0  0  0
   -3.7855   -0.1651    0.0000 C   0  0  1  0  0  0  0  0  0  0  0  0
   -4.7497   -1.3142    0.0000 H   0  0  0  0  0  0  0  0  0  0  0  0
   -5.0845    0.5849    0.0000 C   0  0  0  0  0  0  0  0  0  0  0  0
   -5.0845    2.0849    0.0000 C   0  0  0  0  0  0  0  0  0  0  0  0
   -6.3836    2.8349    0.0000 C   0  0  0  0  0  0  0  0  0  0  0  0
   -6.3836    4.3349    0.0000 C   0  0  0  0  0  0  0  0  0  0  0  0
   -7.6826    5.0849    0.0000 O   0  0  0  0  0  0  0  0  0  0  0  0
   -5.0845    5.0849    0.0000 C   0  0  0  0  0  0  0  0  0  0  0  0
   -3.7855    4.3349    0.0000 C   0  0  0  0  0  0  0  0  0  0  0  0
   -3.7855    2.8349    0.0000 C   0  0  2  0  0  0  0  0  0  0  0  0
   -2.4864    3.5849    0.0000 C   0  0  0  0  0  0  0  0  0  0  0  0
   -2.5128   -1.6819    0.0000 S   0  0  0  0  0  0  0  0  0  0  0  0
   -3.0258   -3.0914    0.0000 C   0  0  0  0  0  0  0  0  0  0  0  0
   -4.5030   -3.3519    0.0000 C   0  0  0  0  0  0  0  0  0  0  0  0
   -2.0616   -4.2405    0.0000 O   0  0  0  0  0  0  0  0  0  0  0  0
  2  1  1  6  0  0  0 
  2  3  1  0  0  0  0 
  3  4  1  0  0  0  0 
  5  4  1  6  0  0  0 
  5  6  1  0  0  0  0 
  6  7  1  0  0  0  0 
  7  8  1  0  0  0  0 
  8  9  2  0  0  0  0 
  8 10  1  0  0  0  0 
  5 10  1  1  0  0  0 
  5 11  1  0  0  0  0 
  2 11  1  0  0  0  0 
 11 12  1  1  0  0  0 
 11 13  1  0  0  0  0 
 13 14  1  0  0  0  0 
 14 15  1  0  0  0  0 
 15 16  1  6  0  0  0 
 15 17  1  0  0  0  0 
  2 17  1  0  0  0  0 
 17 18  1  1  0  0  0 
 17 19  1  0  0  0  0 
 19 20  1  1  0  0  0 
 19 21  1  0  0  0  0 
 21 22  1  0  0  0  0 
 22 23  2  0  0  0  0 
 23 24  1  0  0  0  0 
 24 25  2  0  0  0  0 
 24 26  1  0  0  0  0 
 26 27  1  0  0  0  0 
 27 28  1  0  0  0  0 
 15 28  1  0  0  0  0 
 22 28  1  0  0  0  0 
 28 29  1  1  0  0  0 
 19 30  1  6  0  0  0 
 30 31  1  0  0  0  0 
 31 32  1  0  0  0  0 
 31 33  2  0  0  0  0 
M  END
> <SMILES>
[H][C@@]12CC[C@@]3(CCC(=O)O3)[C@@]1(C)CC[C@@]1([H])[C@@]2([H])[C@@]([H])(CC2=CC(=O)CC[C@]12C)SC(C)=O

$$$$

  CDK     06141809482D

 18 18  0  0  1  0  0  0  0  0999 V2000
    6.4962   -0.4808    0.0000 C   0  0  0  0  0  0  0  0  0  0  0  0
    5.1970   -1.2306    0.0000 N   0  0  0  0  0  0  0  0  0  0  0  0
    5.1968   -2.7306    0.0000 N   0  0  0  0  0  0  0  0  0  0  0  0
    6.4957   -3.4808    0.0000 O   0  0  0  0  0  0  0  0  0  0  0  0
    3.8981   -0.4804    0.0000 C   0  0  0  0  0  0  0  0  0  0  0  0
    3.8983    1.0196    0.0000 O   0  0  0  0  0  0  0  0  0  0  0  0
    2.5989   -1.2302    0.0000 N   0  0  0  0  0  0  0  0  0  0  0  0
    1.3000   -0.4800    0.0000 C   0  0  1  0  0  0  0  0  0  0  0  0
    1.3000    1.0200    0.0000 C   0  0  1  0  0  0  0  0  0  0  0  0
    2.5989    1.7702    0.0000 O   0  0  0  0  0  0  0  0  0  0  0  0
   -0.0000    1.7700    0.0000 O   0  0  0  0  0  0  0  0  0  0  0  0
   -1.3000    1.0200    0.0000 C   0  0  2  0  0  0  0  0  0  0  0  0
   -2.5989    1.7702    0.0000 C   0  0  0  0  0  0  0  0  0  0  0  0
   -3.8981    1.0204    0.0000 O   0  0  0  0  0  0  0  0  0  0  0  0
   -1.3000   -0.4800    0.0000 C   0  0  1  0  0  0  0  0  0  0  0  0
   -2.5989   -1.2302    0.0000 O   0  0  0  0  0  0  0  0  0  0  0  0
   -0.0000   -1.2300    0.0000 C   0  0  2  0  0  0  0  0  0  0  0  0
   -0.0000   -2.7300    0.0000 O   0  0  0  0  0  0  0  0  0  0  0  0
  1  2  1  0  0  0  0 
  2  3  1  0  0  0  0 
  3  4  2  0  0  0  0 
  2  5  1  0  0  0  0 
  5  6  2  0  0  0  0 
  5  7  1  0  0  0  0 
  8  7  1  6  0  0  0 
  8  9  1  0  0  0  0 
  9 10  1  6  0  0  0 
  9 11  1  0  0  0  0 
 11 12  1  0  0  0  0 
 12 13  1  1  0  0  0 
 13 14  1  0  0  0  0 
 12 15  1  0  0  0  0 
 15 16  1  6  0  0  0 
 15 17  1  0  0  0  0 
  8 17  1  0  0  0  0 
 17 18  1  1  0  0  0 
M  END
> <SMILES>
CN(N=O)C(=O)N[C@H]1[C@@H](O)O[C@H](CO)[C@@H](O)[C@@H]1O

$$$$

  CDK     06141809482D

 33 34  0  0  1  0  0  0  0  0999 V2000
    5.1970    1.5006    0.0000 C   0  0  0  0  0  0  0  0  0  0  0  0
    3.8981    0.7504    0.0000 O   0  0  0  0  0  0  0  0  0  0  0  0
    2.5989    1.5002    0.0000 C   0  0  0  0  0  0  0  0  0  0  0  0
    1.3000    0.7500    0.0000 C   0  0  0  0  0  0  0  0  0  0  0  0
    0.0000    1.5000    0.0000 C   0  0  0  0  0  0  0  0  0  0  0  0
    0.0000    3.0000    0.0000 C   0  0  0  0  0  0  0  0  0  0  0  0
   -1.2989    3.7502    0.0000 C   0  0  0  0  0  0  0  0  0  0  0  0
   -1.2982    5.2510    0.0000 C   0  0  0  0  0  0  0  0  0  0  0  0
    0.0014    6.0017    0.0000 C   0  0  0  0  0  0  0  0  0  0  0  0
    0.0014    7.5017    0.0000 F   0  0  0  0  0  0  0  0  0  0  0  0
    1.3004    5.2515    0.0000 C   0  0  0  0  0  0  0  0  0  0  0  0
    1.2996    3.7506    0.0000 C   0  0  0  0  0  0  0  0  0  0  0  0
   -1.3000    0.7500    0.0000 C   0  0  0  0  0  0  0  0  0  0  0  0
   -2.5989    1.5002    0.0000 C   0  0  0  0  0  0  0  0  0  0  0  0
   -3.8981    0.7504    0.0000 C   0  0  0  0  0  0  0  0  0  0  0  0
   -5.1970    1.5006    0.0000 C   0  0  1  0  0  0  0  0  0  0  0  0
   -5.1968    3.0006    0.0000 O   0  0  0  0  0  0  0  0  0  0  0  0
   -6.4962    0.7508    0.0000 C   0  0  0  0  0  0  0  0  0  0  0  0
   -7.7951    1.5010    0.0000 C   0  0  1  0  0  0  0  0  0  0  0  0
   -7.7948    3.0010    0.0000 O   0  0  0  0  0  0  0  0  0  0  0  0
   -9.0942    0.7512    0.0000 C   0  0  0  0  0  0  0  0  0  0  0  0
  -10.3931    1.5015    0.0000 C   0  0  0  0  0  0  0  0  0  0  0  0
  -11.6923    0.7517    0.0000 O   0  0  0  0  0  0  0  0  0  0  0  0
  -10.3929    3.0015    0.0000 O   0  0  0  0  0  0  0  0  0  0  0  0
   -1.3000   -0.7500    0.0000 C   0  0  0  0  0  0  0  0  0  0  0  0
   -2.5989   -1.5002    0.0000 C   0  0  0  0  0  0  0  0  0  0  0  0
   -2.5987   -3.0002    0.0000 C   0  0  0  0  0  0  0  0  0  0  0  0
   -3.8981   -0.7504    0.0000 C   0  0  0  0  0  0  0  0  0  0  0  0
   -0.0000   -1.5000    0.0000 N   0  0  0  0  0  0  0  0  0  0  0  0
    1.3000   -0.7500    0.0000 C   0  0  0  0  0  0  0  0  0  0  0  0
    2.5989   -1.5002    0.0000 C   0  0  0  0  0  0  0  0  0  0  0  0
    2.5987   -3.0002    0.0000 C   0  0  0  0  0  0  0  0  0  0  0  0
    3.8981   -0.7504    0.0000 C   0  0  0  0  0  0  0  0  0  0  0  0
  1  2  1  0  0  0  0 
  2  3  1  0  0  0  0 
  3  4  1  0  0  0  0 
  4  5  2  0  0  0  0 
  5  6  1  0  0  0  0 
  6  7  2  0  0  0  0 
  7  8  1  0  0  0  0 
  8  9  2  0  0  0  0 
  9 10  1  0  0  0  0 
  9 11  1  0  0  0  0 
 11 12  2  0  0  0  0 
  6 12  1  0  0  0  0 
  5 13  1  0  0  0  0 
 13 14  1  4  0  0  0 
 14 15  2  0  0  0  0 
 15 16  1  0  0  0  0 
 16 17  1  6  0  0  0 
 16 18  1  0  0  0  0 
 18 19  1  0  0  0  0 
 19 20  1  6  0  0  0 
 19 21  1  0  0  0  0 
 21 22  1  0  0  0  0 
 22 23  1  0  0  0  0 
 22 24  2  0  0  0  0 
 13 25  2  0  0  0  0 
 25 26  1  0  0  0  0 
 26 27  1  0  0  0  0 
 26 28  1  0  0  0  0 
 25 29  1  0  0  0  0 
 29 30  2  0  0  0  0 
  4 30  1  0  0  0  0 
 30 31  1  0  0  0  0 
 31 32  1  0  0  0  0 
 31 33  1  0  0  0  0 
M  END
> <SMILES>
COCC1=C(C2=CC=C(F)C=C2)C(C=C[C@@H](O)C[C@@H](O)CC(O)=O)=C(C(C)C)N=C1C(C)C

$$$$

  CDK     06141809482D

 18 19  0  0  1  0  0  0  0  0999 V2000
    4.4838   -4.9323    0.0000 N   0  0  0  0  0  0  0  0  0  0  0  0
    3.1811   -4.1888    0.0000 C   0  0  0  0  0  0  0  0  0  0  0  0
    1.8716   -4.9569    0.0000 N   0  0  0  0  0  0  0  0  0  0  0  0
    0.5725   -4.2069    0.0000 C   0  0  0  0  0  0  0  0  0  0  0  0
   -0.7254   -4.9589    0.0000 O   0  0  0  0  0  0  0  0  0  0  0  0
    0.5680   -2.7148    0.0000 N   0  0  0  0  0  0  0  0  0  0  0  0
    1.8515   -1.9316    0.0000 C   0  0  0  0  0  0  0  0  0  0  0  0
    3.1766   -2.6966    0.0000 C   0  0  0  0  0  0  0  0  0  0  0  0
   -0.7411   -1.9825    0.0000 C   0  0  2  0  0  0  0  0  0  0  0  0
   -2.1028   -2.6167    0.0000 O   0  0  0  0  0  0  0  0  0  0  0  0
   -3.1137   -1.5058    0.0000 C   0  0  2  0  0  0  0  0  0  0  0  0
   -4.6041   -1.6755    0.0000 C   0  0  0  0  0  0  0  0  0  0  0  0
   -5.4963   -0.4697    0.0000 O   0  0  0  0  0  0  0  0  0  0  0  0
   -2.3830   -0.2043    0.0000 C   0  0  1  0  0  0  0  0  0  0  0  0
   -3.0090    1.1589    0.0000 O   0  0  0  0  0  0  0  0  0  0  0  0
   -0.9124   -0.4998    0.0000 C   0  0  0  0  0  0  0  0  0  0  0  0
    0.5875   -0.4839    0.0000 F   0  0  0  0  0  0  0  0  0  0  0  0
   -0.7718    0.9936    0.0000 F   0  0  0  0  0  0  0  0  0  0  0  0
  1  2  1  0  0  0  0 
  2  3  2  0  0  0  0 
  3  4  1  0  0  0  0 
  4  5  2  0  0  0  0 
  4  6  1  0  0  0  0 
  6  7  1  0  0  0  0 
  7  8  2  0  0  0  0 
  2  8  1  0  0  0  0 
  9  6  1  6  0  0  0 
  9 10  1  0  0  0  0 
 10 11  1  0  0  0  0 
 11 12  1  6  0  0  0 
 12 13  1  0  0  0  0 
 11 14  1  0  0  0  0 
 14 15  1  1  0  0  0 
 14 16  1  0  0  0  0 
  9 16  1  0  0  0  0 
 16 17  1  0  0  0  0 
 16 18  1  0  0  0  0 
M  END
> <SMILES>
NC1=NC(=O)N(C=C1)[C@@H]1O[C@H](CO)[C@@H](O)C1(F)F

$$$$

  CDK     06141809482D

 30 33  0  0  1  0  0  0  0  0999 V2000
    0.9188    0.4545    0.0000 H   0  0  0  0  0  0  0  0  0  0  0  0
    2.1233   -0.4393    0.0000 C   0  0  2  0  0  0  0  0  0  0  0  0
    3.5533   -0.9093    0.0000 C   0  0  0  0  0  0  0  0  0  0  0  0
    4.4033    0.2807    0.0000 C   0  0  2  0  0  0  0  0  0  0  0  0
    5.9033    0.2719    0.0000 C   0  0  0  0  0  0  0  0  0  0  0  0
    3.5533    1.5007    0.0000 C   0  0  2  0  0  0  0  0  0  0  0  0
    4.8613    2.2349    0.0000 O   0  0  0  0  0  0  0  0  0  0  0  0
    2.7558    3.3130    0.0000 C   0  0  0  0  0  0  0  0  0  0  0  0
    1.2648    3.4762    0.0000 O   0  0  0  0  0  0  0  0  0  0  0  0
    3.6428    4.5226    0.0000 C   0  0  0  0  0  0  0  0  0  0  0  0
    5.1339    4.3594    0.0000 O   0  0  0  0  0  0  0  0  0  0  0  0
    2.1233    1.0307    0.0000 C   0  0  2  0  0  0  0  0  0  0  0  0
    2.2893    2.5214    0.0000 C   0  0  0  0  0  0  0  0  0  0  0  0
    0.8533    1.7907    0.0000 C   0  0  0  0  0  0  0  0  0  0  0  0
   -0.4767    1.0307    0.0000 C   0  0  2  0  0  0  0  0  0  0  0  0
   -1.7740    1.7835    0.0000 O   0  0  0  0  0  0  0  0  0  0  0  0
   -0.4767   -0.4393    0.0000 C   0  0  1  0  0  0  0  0  0  0  0  0
   -1.7690    0.3222    0.0000 F   0  0  0  0  0  0  0  0  0  0  0  0
    0.8533   -1.1593    0.0000 C   0  0  1  0  0  0  0  0  0  0  0  0
    2.1494   -1.9144    0.0000 H   0  0  0  0  0  0  0  0  0  0  0  0
    0.8533   -2.6893    0.0000 C   0  0  0  0  0  0  0  0  0  0  0  0
   -0.4767   -3.4393    0.0000 C   0  0  0  0  0  0  0  0  0  0  0  0
   -1.7767   -2.6893    0.0000 C   0  0  0  0  0  0  0  0  0  0  0  0
   -3.0467   -3.4393    0.0000 C   0  0  0  0  0  0  0  0  0  0  0  0
   -4.3567   -2.6893    0.0000 C   0  0  0  0  0  0  0  0  0  0  0  0
   -5.6543   -3.4417    0.0000 O   0  0  0  0  0  0  0  0  0  0  0  0
   -4.3567   -1.1593    0.0000 C   0  0  0  0  0  0  0  0  0  0  0  0
   -3.0467   -0.4393    0.0000 C   0  0  0  0  0  0  0  0  0  0  0  0
   -1.7767   -1.1593    0.0000 C   0  0  2  0  0  0  0  0  0  0  0  0
   -0.5012   -1.9488    0.0000 C   0  0  0  0  0  0  0  0  0  0  0  0
  2  1  1  6  0  0  0 
  2  3  1  0  0  0  0 
  3  4  1  0  0  0  0 
  4  5  1  1  0  0  0 
  4  6  1  0  0  0  0 
  6  7  1  6  0  0  0 
  6  8  1  1  0  0  0 
  8  9  2  0  0  0  0 
  8 10  1  0  0  0  0 
 10 11  1  0  0  0  0 
  6 12  1  0  0  0  0 
  2 12  1  0  0  0  0 
 12 13  1  1  0  0  0 
 12 14  1  0  0  0  0 
 14 15  1  0  0  0  0 
 15 16  1  1  0  0  0 
 15 17  1  0  0  0  0 
 17 18  1  6  0  0  0 
 17 19  1  0  0  0  0 
  2 19  1  0  0  0  0 
 19 20  1  1  0  0  0 
 19 21  1  0  0  0  0 
 21 22  1  0  0  0  0 
 22 23  1  0  0  0  0 
 23 24  2  0  0  0  0 
 24 25  1  0  0  0  0 
 25 26  2  0  0  0  0 
 25 27  1  0  0  0  0 
 27 28  2  0  0  0  0 
 28 29  1  0  0  0  0 
 17 29  1  0  0  0  0 
 23 29  1  0  0  0  0 
 29 30  1  1  0  0  0 
M  END
> <SMILES>
[H][C@@]12C[C@H](C)[C@](O)(C(=O)CO)[C@@]1(C)C[C@H](O)[C@@]1(F)[C@@]2([H])CCC2=CC(=O)C=C[C@]12C

$$$$

  CDK     06141809482D

 24 25  0  0  1  0  0  0  0  0999 V2000
   -9.0749    0.7959    0.0000 N   0  0  0  0  0  0  0  0  0  0  0  0
   -9.0879   -0.7040    0.0000 C   0  0  1  0  0  0  0  0  0  0  0  0
   -7.7953   -1.4652    0.0000 C   0  0  0  0  0  0  0  0  0  0  0  0
   -6.4899   -0.7264    0.0000 C   0  0  0  0  0  0  0  0  0  0  0  0
   -5.2157   -1.4794    0.0000 C   0  0  0  0  0  0  0  0  0  0  0  0
   -3.9138   -0.7503    0.0000 C   0  0  0  0  0  0  0  0  0  0  0  0
   -2.6237   -1.5156    0.0000 I   0  0  0  0  0  0  0  0  0  0  0  0
   -3.8981    0.7504    0.0000 C   0  0  0  0  0  0  0  0  0  0  0  0
   -2.5989    1.5002    0.0000 O   0  0  0  0  0  0  0  0  0  0  0  0
   -1.3000    0.7500    0.0000 C   0  0  0  0  0  0  0  0  0  0  0  0
    0.0000    1.5000    0.0000 C   0  0  0  0  0  0  0  0  0  0  0  0
    1.3000    0.7500    0.0000 C   0  0  0  0  0  0  0  0  0  0  0  0
    2.5989    1.5002    0.0000 I   0  0  0  0  0  0  0  0  0  0  0  0
    1.3000   -0.7500    0.0000 C   0  0  0  0  0  0  0  0  0  0  0  0
    2.5989   -1.5002    0.0000 O   0  0  0  0  0  0  0  0  0  0  0  0
    0.0000   -1.5000    0.0000 C   0  0  0  0  0  0  0  0  0  0  0  0
   -0.0000   -3.0000    0.0000 I   0  0  0  0  0  0  0  0  0  0  0  0
   -1.3000   -0.7500    0.0000 C   0  0  0  0  0  0  0  0  0  0  0  0
   -5.1875    1.4775    0.0000 C   0  0  0  0  0  0  0  0  0  0  0  0
   -5.1801    2.9775    0.0000 I   0  0  0  0  0  0  0  0  0  0  0  0
   -6.4793    0.7657    0.0000 C   0  0  0  0  0  0  0  0  0  0  0  0
  -10.3933   -1.4428    0.0000 C   0  0  0  0  0  0  0  0  0  0  0  0
  -11.6859   -0.6816    0.0000 O   0  0  0  0  0  0  0  0  0  0  0  0
  -10.4063   -2.9427    0.0000 O   0  0  0  0  0  0  0  0  0  0  0  0
  2  1  1  1  0  0  0 
  2  3  1  0  0  0  0 
  3  4  1  0  0  0  0 
  4  5  2  0  0  0  0 
  5  6  1  0  0  0  0 
  6  7  1  0  0  0  0 
  6  8  2  0  0  0  0 
  8  9  1  0  0  0  0 
  9 10  1  0  0  0  0 
 10 11  2  0  0  0  0 
 11 12  1  0  0  0  0 
 12 13  1  0  0  0  0 
 12 14  2  0  0  0  0 
 14 15  1  0  0  0  0 
 14 16  1  0  0  0  0 
 16 17  1  0  0  0  0 
 16 18  2  0  0  0  0 
 10 18  1  0  0  0  0 
  8 19  1  0  0  0  0 
 19 20  1  0  0  0  0 
 19 21  2  0  0  0  0 
  4 21  1  0  0  0  0 
  2 22  1  0  0  0  0 
 22 23  1  0  0  0  0 
 22 24  2  0  0  0  0 
M  END
> <SMILES>
N[C@@H](CC1=CC(I)=C(OC2=CC(I)=C(O)C(I)=C2)C(I)=C1)C(O)=O

$$$$

  CDK     06141809482D

 27 30  0  0  0  0  0  0  0  0999 V2000
   -2.5981   10.3100    0.0000 C   0  0  0  0  0  0  0  0  0  0  0  0
   -1.2990    9.5600    0.0000 C   0  0  0  0  0  0  0  0  0  0  0  0
   -1.2990    8.0600    0.0000 O   0  0  0  0  0  0  0  0  0  0  0  0
    0.0000    7.3100    0.0000 C   0  0  0  0  0  0  0  0  0  0  0  0
    1.2990    8.0600    0.0000 O   0  0  0  0  0  0  0  0  0  0  0  0
   -0.0000    5.8100    0.0000 N   0  0  0  0  0  0  0  0  0  0  0  0
    1.3000    5.0600    0.0000 C   0  0  0  0  0  0  0  0  0  0  0  0
    1.3000    3.5600    0.0000 C   0  0  0  0  0  0  0  0  0  0  0  0
    0.0000    2.8100    0.0000 C   0  0  0  0  0  0  0  0  0  0  0  0
   -1.3000    3.5600    0.0000 C   0  0  0  0  0  0  0  0  0  0  0  0
   -1.3000    5.0600    0.0000 C   0  0  0  0  0  0  0  0  0  0  0  0
    0.0000    1.3100    0.0000 C   0  0  0  0  0  0  0  0  0  0  0  0
    1.3500    0.6600    0.0000 C   0  0  0  0  0  0  0  0  0  0  0  0
    1.6900   -0.8000    0.0000 C   0  0  0  0  0  0  0  0  0  0  0  0
    0.7500   -1.9700    0.0000 C   0  0  0  0  0  0  0  0  0  0  0  0
   -0.7500   -1.9700    0.0000 C   0  0  0  0  0  0  0  0  0  0  0  0
   -1.6900   -0.8000    0.0000 C   0  0  0  0  0  0  0  0  0  0  0  0
   -1.3500    0.6600    0.0000 C   0  0  0  0  0  0  0  0  0  0  0  0
   -2.4500    1.6800    0.0000 N   0  0  0  0  0  0  0  0  0  0  0  0
   -3.8800    1.2400    0.0000 C   0  0  0  0  0  0  0  0  0  0  0  0
   -4.2200   -0.2200    0.0000 C   0  0  0  0  0  0  0  0  0  0  0  0
   -3.1200   -1.2400    0.0000 C   0  0  0  0  0  0  0  0  0  0  0  0
    3.1200   -1.2400    0.0000 C   0  0  0  0  0  0  0  0  0  0  0  0
    4.2200   -0.2200    0.0000 C   0  0  0  0  0  0  0  0  0  0  0  0
    5.6543   -0.6592    0.0000 Cl  0  0  0  0  0  0  0  0  0  0  0  0
    3.8800    1.2400    0.0000 C   0  0  0  0  0  0  0  0  0  0  0  0
    2.4500    1.6800    0.0000 C   0  0  0  0  0  0  0  0  0  0  0  0
  1  2  1  0  0  0  0 
  2  3  1  0  0  0  0 
  3  4  1  0  0  0  0 
  4  5  2  0  0  0  0 
  4  6  1  0  0  0  0 
  6  7  1  0  0  0  0 
  7  8  1  0  0  0  0 
  8  9  1  4  0  0  0 
  9 10  1  0  0  0  0 
 10 11  1  0  0  0  0 
  6 11  1  0  0  0  0 
  9 12  2  0  0  0  0 
 12 13  1  0  0  0  0 
 13 14  2  0  0  0  0 
 14 15  1  0  0  0  0 
 15 16  1  0  0  0  0 
 16 17  1  0  0  0  0 
 17 18  2  0  0  0  0 
 12 18  1  0  0  0  0 
 18 19  1  0  0  0  0 
 19 20  2  0  0  0  0 
 20 21  1  0  0  0  0 
 21 22  2  0  0  0  0 
 17 22  1  0  0  0  0 
 14 23  1  0  0  0  0 
 23 24  2  0  0  0  0 
 24 25  1  0  0  0  0 
 24 26  1  0  0  0  0 
 26 27  2  0  0  0  0 
 13 27  1  0  0  0  0 
M  END
> <SMILES>
CCOC(=O)N1CCC(CC1)=C1C2=C(CCC3=C1N=CC=C3)C=C(Cl)C=C2

$$$$

  CDK     06141809482D

 25 27  0  0  1  0  0  0  0  0999 V2000
    0.8427    1.4437    0.0000 H   0  0  0  0  0  0  0  0  0  0  0  0
   -0.4600    0.7000    0.0000 C   0  0  2  0  0  0  0  0  0  0  0  0
   -0.4500    2.1900    0.0000 C   0  0  0  0  0  0  0  0  0  0  0  0
   -1.7500    2.9400    0.0000 C   0  0  0  0  0  0  0  0  0  0  0  0
   -1.7475    4.4400    0.0000 C   0  0  0  0  0  0  0  0  0  0  0  0
   -3.0600    2.1900    0.0000 C   0  0  0  0  0  0  0  0  0  0  0  0
   -3.0600    0.7000    0.0000 C   0  0  0  0  0  0  0  0  0  0  0  0
   -1.7600   -0.0500    0.0000 C   0  0  1  0  0  0  0  0  0  0  0  0
   -0.4611   -0.8002    0.0000 H   0  0  0  0  0  0  0  0  0  0  0  0
   -1.7600   -1.5600    0.0000 C   0  0  0  0  0  0  0  0  0  0  0  0
   -3.2377   -1.3025    0.0000 C   0  0  0  0  0  0  0  0  0  0  0  0
   -2.2673   -2.9716    0.0000 C   0  0  0  0  0  0  0  0  0  0  0  0
   -0.4600   -2.3000    0.0000 O   0  0  0  0  0  0  0  0  0  0  0  0
    0.8300   -1.5600    0.0000 C   0  0  0  0  0  0  0  0  0  0  0  0
    0.8300   -0.0500    0.0000 C   0  0  0  0  0  0  0  0  0  0  0  0
    2.1300    0.7000    0.0000 C   0  0  0  0  0  0  0  0  0  0  0  0
    2.1325    2.2000    0.0000 O   0  0  0  0  0  0  0  0  0  0  0  0
    3.4200   -0.0500    0.0000 C   0  0  0  0  0  0  0  0  0  0  0  0
    3.4200   -1.5600    0.0000 C   0  0  0  0  0  0  0  0  0  0  0  0
    4.7180   -2.3118    0.0000 C   0  0  0  0  0  0  0  0  0  0  0  0
    6.0181   -1.5636    0.0000 C   0  0  0  0  0  0  0  0  0  0  0  0
    7.3161   -2.3154    0.0000 C   0  0  0  0  0  0  0  0  0  0  0  0
    8.6161   -1.5672    0.0000 C   0  0  0  0  0  0  0  0  0  0  0  0
    9.9141   -2.3190    0.0000 C   0  0  0  0  0  0  0  0  0  0  0  0
    2.1300   -2.3000    0.0000 C   0  0  0  0  0  0  0  0  0  0  0  0
  2  1  1  6  0  0  0 
  2  3  1  0  0  0  0 
  3  4  2  0  0  0  0 
  4  5  1  0  0  0  0 
  4  6  1  0  0  0  0 
  6  7  1  0  0  0  0 
  7  8  1  0  0  0  0 
  2  8  1  0  0  0  0 
  8  9  1  1  0  0  0 
  8 10  1  0  0  0  0 
 10 11  1  0  0  0  0 
 10 12  1  0  0  0  0 
 10 13  1  0  0  0  0 
 13 14  1  0  0  0  0 
 14 15  2  0  0  0  0 
  2 15  1  0  0  0  0 
 15 16  1  0  0  0  0 
 16 17  1  0  0  0  0 
 16 18  2  0  0  0  0 
 18 19  1  0  0  0  0 
 19 20  1  0  0  0  0 
 20 21  1  0  0  0  0 
 21 22  1  0  0  0  0 
 22 23  1  0  0  0  0 
 23 24  1  0  0  0  0 
 19 25  2  0  0  0  0 
 14 25  1  0  0  0  0 
M  END
> <SMILES>
[H][C@@]12C=C(C)CC[C@@]1([H])C(C)(C)OC1=C2C(O)=CC(CCCCC)=C1

$$$$

  CDK     06141809482D

 22 23  0  0  0  0  0  0  0  0999 V2000
    3.8980    2.9892    0.0000 C   0  0  0  0  0  0  0  0  0  0  0  0
    2.5929    3.7284    0.0000 N   0  0  0  0  0  0  0  0  0  0  0  0
    1.3001    2.9677    0.0000 C   0  0  0  0  0  0  0  0  0  0  0  0
   -0.0051    3.7070    0.0000 C   0  0  0  0  0  0  0  0  0  0  0  0
   -1.2979    2.9463    0.0000 C   0  0  0  0  0  0  0  0  0  0  0  0
   -2.6031    3.6855    0.0000 O   0  0  0  0  0  0  0  0  0  0  0  0
   -3.8959    2.9249    0.0000 C   0  0  0  0  0  0  0  0  0  0  0  0
   -5.2459    3.6749    0.0000 C   0  0  0  0  0  0  0  0  0  0  0  0
   -6.5159    2.9249    0.0000 C   0  0  0  0  0  0  0  0  0  0  0  0
   -6.5159    1.4249    0.0000 C   0  0  0  0  0  0  0  0  0  0  0  0
   -5.2459    0.6749    0.0000 C   0  0  0  0  0  0  0  0  0  0  0  0
   -3.8959    1.4249    0.0000 C   0  0  0  0  0  0  0  0  0  0  0  0
   -7.8186    0.6813    0.0000 C   0  0  0  0  0  0  0  0  0  0  0  0
   -9.1140    1.4376    0.0000 F   0  0  0  0  0  0  0  0  0  0  0  0
   -8.7885   -0.4631    0.0000 F   0  0  0  0  0  0  0  0  0  0  0  0
   -6.8601   -0.4725    0.0000 F   0  0  0  0  0  0  0  0  0  0  0  0
   -1.2856    1.4463    0.0000 C   0  0  0  0  0  0  0  0  0  0  0  0
    0.0206    0.7071    0.0000 C   0  0  0  0  0  0  0  0  0  0  0  0
    0.0330   -0.7929    0.0000 C   0  0  0  0  0  0  0  0  0  0  0  0
   -1.2608   -1.5536    0.0000 C   0  0  0  0  0  0  0  0  0  0  0  0
   -2.5669   -0.8143    0.0000 C   0  0  0  0  0  0  0  0  0  0  0  0
   -2.5793    0.6856    0.0000 C   0  0  0  0  0  0  0  0  0  0  0  0
  1  2  1  0  0  0  0 
  2  3  1  0  0  0  0 
  3  4  1  0  0  0  0 
  4  5  1  0  0  0  0 
  5  6  1  0  0  0  0 
  6  7  1  0  0  0  0 
  7  8  2  0  0  0  0 
  8  9  1  0  0  0  0 
  9 10  2  0  0  0  0 
 10 11  1  0  0  0  0 
 11 12  2  0  0  0  0 
  7 12  1  0  0  0  0 
 10 13  1  0  0  0  0 
 13 14  1  0  0  0  0 
 13 15  1  0  0  0  0 
 13 16  1  0  0  0  0 
  5 17  1  0  0  0  0 
 17 18  2  0  0  0  0 
 18 19  1  0  0  0  0 
 19 20  2  0  0  0  0 
 20 21  1  0  0  0  0 
 21 22  2  0  0  0  0 
 17 22  1  0  0  0  0 
M  END
> <SMILES>
CNCCC(OC1=CC=C(C=C1)C(F)(F)F)C1=CC=CC=C1

$$$$

  CDK     06141809482D

 19 21  0  0  0  0  0  0  0  0999 V2000
   -1.0100    3.0000    0.0000 N   0  0  0  0  0  0  0  0  0  0  0  0
   -1.0100    1.5000    0.0000 C   0  0  0  0  0  0  0  0  0  0  0  0
   -2.3100    0.7500    0.0000 C   0  0  0  0  0  0  0  0  0  0  0  0
   -2.3100   -0.7500    0.0000 C   0  0  0  0  0  0  0  0  0  0  0  0
   -1.0100   -1.5000    0.0000 C   0  0  0  0  0  0  0  0  0  0  0  0
    0.2900   -0.7500    0.0000 C   0  0  0  0  0  0  0  0  0  0  0  0
    0.2900    0.7500    0.0000 C   0  0  0  0  0  0  0  0  0  0  0  0
    1.7200    1.2100    0.0000 C   0  0  0  0  0  0  0  0  0  0  0  0
    2.6000    0.0000    0.0000 N   0  0  0  0  0  0  0  0  0  0  0  0
    4.1000   -0.0000    0.0000 C   0  0  0  0  0  0  0  0  0  0  0  0
    4.8506   -1.2996    0.0000 C   0  0  0  0  0  0  0  0  0  0  0  0
    6.3515   -1.3004    0.0000 C   0  0  0  0  0  0  0  0  0  0  0  0
    7.1017   -0.0014    0.0000 C   0  0  0  0  0  0  0  0  0  0  0  0
    8.6017   -0.0014    0.0000 O   0  0  0  0  0  0  0  0  0  0  0  0
    6.3510    1.2982    0.0000 N   0  0  0  0  0  0  0  0  0  0  0  0
    4.8502    1.2989    0.0000 C   0  0  0  0  0  0  0  0  0  0  0  0
    4.1006    2.5982    0.0000 O   0  0  0  0  0  0  0  0  0  0  0  0
    1.7200   -1.2100    0.0000 C   0  0  0  0  0  0  0  0  0  0  0  0
    2.1853   -2.6360    0.0000 O   0  0  0  0  0  0  0  0  0  0  0  0
  1  2  1  0  0  0  0 
  2  3  2  0  0  0  0 
  3  4  1  0  0  0  0 
  4  5  2  0  0  0  0 
  5  6  1  0  0  0  0 
  6  7  2  0  0  0  0 
  2  7  1  0  0  0  0 
  7  8  1  0  0  0  0 
  8  9  1  0  0  0  0 
  9 10  1  0  0  0  0 
 10 11  1  0  0  0  0 
 11 12  1  0  0  0  0 
 12 13  1  0  0  0  0 
 13 14  2  0  0  0  0 
 13 15  1  0  0  0  0 
 15 16  1  0  0  0  0 
 10 16  1  0  0  0  0 
 16 17  2  0  0  0  0 
  9 18  1  0  0  0  0 
  6 18  1  0  0  0  0 
 18 19  2  0  0  0  0 
M  END
> <SMILES>
NC1=CC=CC2=C1CN(C1CCC(=O)NC1=O)C2=O

$$$$

  CDK     06141809482D

 28 31  0  0  0  0  0  0  0  0999 V2000
    1.9247   -8.5839    0.0000 O   0  0  0  0  0  0  0  0  0  0  0  0
    3.2237   -7.8339    0.0000 C   0  0  0  0  0  0  0  0  0  0  0  0
    4.5228   -8.5839    0.0000 C   0  0  0  0  0  0  0  0  0  0  0  0
    5.8218   -7.8339    0.0000 C   0  0  0  0  0  0  0  0  0  0  0  0
    7.1921   -7.2237    0.0000 C   0  0  0  0  0  0  0  0  0  0  0  0
    8.1958   -8.3385    0.0000 C   0  0  0  0  0  0  0  0  0  0  0  0
    7.4458   -9.6375    0.0000 C   0  0  0  0  0  0  0  0  0  0  0  0
    5.9786   -9.3256    0.0000 C   0  0  0  0  0  0  0  0  0  0  0  0
    5.8218   -6.3339    0.0000 C   0  0  0  0  0  0  0  0  0  0  0  0
    4.5228   -5.5839    0.0000 C   0  0  0  0  0  0  0  0  0  0  0  0
    4.5228   -4.0839    0.0000 O   0  0  0  0  0  0  0  0  0  0  0  0
    3.2237   -6.3339    0.0000 N   0  0  0  0  0  0  0  0  0  0  0  0
    1.9247   -5.5839    0.0000 C   0  0  0  0  0  0  0  0  0  0  0  0
    0.6256   -6.3339    0.0000 C   0  0  0  0  0  0  0  0  0  0  0  0
   -0.6734   -5.5839    0.0000 C   0  0  0  0  0  0  0  0  0  0  0  0
   -1.9724   -6.3339    0.0000 C   0  0  0  0  0  0  0  0  0  0  0  0
   -3.2715   -5.5839    0.0000 N   0  0  0  0  0  0  0  0  0  0  0  0
   -3.2717   -4.0830    0.0000 C   0  0  0  0  0  0  0  0  0  0  0  0
   -4.5711   -3.3320    0.0000 C   0  0  0  0  0  0  0  0  0  0  0  0
   -5.8703   -4.0818    0.0000 N   0  0  0  0  0  0  0  0  0  0  0  0
   -5.8700   -5.5826    0.0000 C   0  0  0  0  0  0  0  0  0  0  0  0
   -4.5706   -6.3336    0.0000 C   0  0  0  0  0  0  0  0  0  0  0  0
   -7.1693   -3.3318    0.0000 C   0  0  0  0  0  0  0  0  0  0  0  0
   -7.1695   -1.8309    0.0000 N   0  0  0  0  0  0  0  0  0  0  0  0
   -8.4689   -1.0799    0.0000 C   0  0  0  0  0  0  0  0  0  0  0  0
   -9.7681   -1.8297    0.0000 C   0  0  0  0  0  0  0  0  0  0  0  0
   -9.7679   -3.3305    0.0000 C   0  0  0  0  0  0  0  0  0  0  0  0
   -8.4685   -4.0816    0.0000 N   0  0  0  0  0  0  0  0  0  0  0  0
  1  2  2  0  0  0  0 
  2  3  1  0  0  0  0 
  3  4  1  0  0  0  0 
  4  5  1  0  0  0  0 
  5  6  1  0  0  0  0 
  6  7  1  0  0  0  0 
  7  8  1  0  0  0  0 
  4  8  1  0  0  0  0 
  4  9  1  0  0  0  0 
  9 10  1  0  0  0  0 
 10 11  2  0  0  0  0 
 10 12  1  0  0  0  0 
  2 12  1  0  0  0  0 
 12 13  1  0  0  0  0 
 13 14  1  0  0  0  0 
 14 15  1  0  0  0  0 
 15 16  1  0  0  0  0 
 16 17  1  0  0  0  0 
 17 18  1  0  0  0  0 
 18 19  1  0  0  0  0 
 19 20  1  0  0  0  0 
 20 21  1  0  0  0  0 
 21 22  1  0  0  0  0 
 17 22  1  0  0  0  0 
 20 23  1  0  0  0  0 
 23 24  2  0  0  0  0 
 24 25  1  0  0  0  0 
 25 26  2  0  0  0  0 
 26 27  1  0  0  0  0 
 27 28  2  0  0  0  0 
 23 28  1  0  0  0  0 
M  END
> <SMILES>
O=C1CC2(CCCC2)CC(=O)N1CCCCN1CCN(CC1)C1=NC=CC=N1

$$$$

  CDK     06141809482D

 19 20  0  0  1  0  0  0  0  0999 V2000
   -5.3075    3.0646    0.0000 C   0  0  0  0  0  0  0  0  0  0  0  0
   -4.0084    2.3148    0.0000 C   0  0  0  0  0  0  0  0  0  0  0  0
   -2.7093    3.0648    0.0000 C   0  0  0  0  0  0  0  0  0  0  0  0
   -1.4098    2.3140    0.0000 N   0  0  0  0  0  0  0  0  0  0  0  0
   -0.1108    3.0640    0.0000 C   0  0  1  0  0  0  0  0  0  0  0  0
    1.2508    2.4523    0.0000 C   0  0  0  0  0  0  0  0  0  0  0  0
    2.2572    3.5645    0.0000 C   0  0  2  0  0  0  0  0  0  0  0  0
    3.7487    3.4046    0.0000 N   0  0  0  0  0  0  0  0  0  0  0  0
    4.6328    4.6163    0.0000 N   0  0  0  0  0  0  0  0  0  0  0  0
    5.5170    5.8281    0.0000 N   0  0  0  0  0  0  0  0  0  0  0  0
    1.5130    4.8583    0.0000 C   0  0  1  0  0  0  0  0  0  0  0  0
    2.1299    6.2256    0.0000 C   0  0  0  0  0  0  0  0  0  0  0  0
    3.6224    6.3750    0.0000 O   0  0  0  0  0  0  0  0  0  0  0  0
    0.0412    4.5583    0.0000 O   0  0  0  0  0  0  0  0  0  0  0  0
   -1.4093    0.8131    0.0000 C   0  0  0  0  0  0  0  0  0  0  0  0
   -0.1102    0.0633    0.0000 O   0  0  0  0  0  0  0  0  0  0  0  0
   -2.7084    0.0631    0.0000 N   0  0  0  0  0  0  0  0  0  0  0  0
   -4.0079    0.8140    0.0000 C   0  0  0  0  0  0  0  0  0  0  0  0
   -5.3069    0.0640    0.0000 O   0  0  0  0  0  0  0  0  0  0  0  0
  1  2  1  0  0  0  0 
  2  3  2  0  0  0  0 
  3  4  1  0  0  0  0 
  5  4  1  6  0  0  0 
  5  6  1  0  0  0  0 
  6  7  1  0  0  0  0 
  7  8  1  1  0  0  0 
  8  9  2  0  0  0  0 
  9 10  2  0  0  0  0 
  7 11  1  0  0  0  0 
 11 12  1  6  0  0  0 
 12 13  1  0  0  0  0 
 11 14  1  0  0  0  0 
  5 14  1  0  0  0  0 
  4 15  1  0  0  0  0 
 15 16  2  0  0  0  0 
 15 17  1  0  0  0  0 
 17 18  1  0  0  0  0 
  2 18  1  0  0  0  0 
 18 19  2  0  0  0  0 
M  CHG  1   9   1
M  CHG  1  10  -1
M  END
> <SMILES>
CC1=CN([C@H]2C[C@H](N=[N+]=[N-])[C@@H](CO)O2)C(=O)NC1=O

$$$$

  CDK     06141809482D

 24 26  0  0  0  0  0  0  0  0999 V2000
   -2.9381    7.2156    0.0000 C   0  0  0  0  0  0  0  0  0  0  0  0
   -2.9356    5.7156    0.0000 N   0  0  0  0  0  0  0  0  0  0  0  0
   -4.2334    4.9635    0.0000 C   0  0  0  0  0  0  0  0  0  0  0  0
   -1.6353    4.9678    0.0000 C   0  0  0  0  0  0  0  0  0  0  0  0
   -1.6328    3.4678    0.0000 C   0  0  0  0  0  0  0  0  0  0  0  0
   -0.3325    2.7200    0.0000 C   0  0  0  0  0  0  0  0  0  0  0  0
   -0.3300    1.2200    0.0000 N   0  0  0  0  0  0  0  0  0  0  0  0
   -1.6200    0.4700    0.0000 C   0  0  0  0  0  0  0  0  0  0  0  0
   -2.9200    1.2200    0.0000 C   0  0  0  0  0  0  0  0  0  0  0  0
   -4.2200    0.4700    0.0000 C   0  0  0  0  0  0  0  0  0  0  0  0
   -4.2200   -1.0300    0.0000 C   0  0  0  0  0  0  0  0  0  0  0  0
   -2.9200   -1.7800    0.0000 C   0  0  0  0  0  0  0  0  0  0  0  0
   -1.6200   -1.0300    0.0000 C   0  0  0  0  0  0  0  0  0  0  0  0
   -0.3300   -1.7800    0.0000 S   0  0  0  0  0  0  0  0  0  0  0  0
    0.9700   -1.0300    0.0000 C   0  0  0  0  0  0  0  0  0  0  0  0
    0.9700    0.4700    0.0000 C   0  0  0  0  0  0  0  0  0  0  0  0
    2.2700    1.2200    0.0000 C   0  0  0  0  0  0  0  0  0  0  0  0
    3.5700    0.4700    0.0000 C   0  0  0  0  0  0  0  0  0  0  0  0
    3.5700   -1.0300    0.0000 C   0  0  0  0  0  0  0  0  0  0  0  0
    2.2700   -1.7800    0.0000 C   0  0  0  0  0  0  0  0  0  0  0  0
    4.8689    1.2202    0.0000 C   0  0  0  0  0  0  0  0  0  0  0  0
    6.1681    0.4704    0.0000 F   0  0  0  0  0  0  0  0  0  0  0  0
    5.8329    2.3694    0.0000 F   0  0  0  0  0  0  0  0  0  0  0  0
    3.9046    2.3691    0.0000 F   0  0  0  0  0  0  0  0  0  0  0  0
  1  2  1  0  0  0  0 
  2  3  1  0  0  0  0 
  2  4  1  0  0  0  0 
  4  5  1  0  0  0  0 
  5  6  1  0  0  0  0 
  6  7  1  0  0  0  0 
  7  8  1  0  0  0  0 
  8  9  2  0  0  0  0 
  9 10  1  0  0  0  0 
 10 11  2  0  0  0  0 
 11 12  1  0  0  0  0 
 12 13  2  0  0  0  0 
  8 13  1  0  0  0  0 
 13 14  1  0  0  0  0 
 14 15  1  0  0  0  0 
 15 16  2  0  0  0  0 
  7 16  1  0  0  0  0 
 16 17  1  0  0  0  0 
 17 18  2  0  0  0  0 
 18 19  1  0  0  0  0 
 19 20  2  0  0  0  0 
 15 20  1  0  0  0  0 
 18 21  1  0  0  0  0 
 21 22  1  0  0  0  0 
 21 23  1  0  0  0  0 
 21 24  1  0  0  0  0 
M  END
> <SMILES>
CN(C)CCCN1C2=CC=CC=C2SC2=C1C=C(C=C2)C(F)(F)F

$$$$

  CDK     06141809482D

 22 25  0  0  1  0  0  0  0  0999 V2000
    2.9989   -0.0598    0.0000 H   0  0  0  0  0  0  0  0  0  0  0  0
    0.4530   -1.5302    0.0000 C   0  0  1  0  0  0  0  0  0  0  0  0
    0.4530   -0.0302    0.0000 C   0  0  0  0  0  0  0  0  0  0  0  0
   -0.8470    0.7198    0.0000 C   0  0  0  0  0  0  0  0  0  0  0  0
   -2.1470   -0.0302    0.0000 C   0  0  0  0  0  0  0  0  0  0  0  0
   -3.4470    0.7198    0.0000 C   0  0  0  0  0  0  0  0  0  0  0  0
   -3.4470    2.2198    0.0000 C   0  0  0  0  0  0  0  0  0  0  0  0
   -4.7459    2.9700    0.0000 O   0  0  0  0  0  0  0  0  0  0  0  0
   -4.7456    4.4700    0.0000 C   0  0  0  0  0  0  0  0  0  0  0  0
   -2.1470    2.9698    0.0000 C   0  0  0  0  0  0  0  0  0  0  0  0
   -0.8470    2.2198    0.0000 C   0  0  0  0  0  0  0  0  0  0  0  0
   -2.1470   -1.5302    0.0000 C   0  0  2  0  0  0  0  0  0  0  0  0
   -3.4470   -2.2802    0.0000 C   0  0  0  0  0  0  0  0  0  0  0  0
   -3.4470   -3.7802    0.0000 C   0  0  0  0  0  0  0  0  0  0  0  0
   -2.1470   -4.5302    0.0000 C   0  0  0  0  0  0  0  0  0  0  0  0
   -0.8470   -3.7802    0.0000 C   0  0  0  0  0  0  0  0  0  0  0  0
   -0.8470   -2.2802    0.0000 C   0  0  2  0  0  0  0  0  0  0  0  0
    0.4520   -3.0304    0.0000 H   0  0  0  0  0  0  0  0  0  0  0  0
   -0.8470   -0.7802    0.0000 C   0  0  0  0  0  0  0  0  0  0  0  0
    1.7730   -0.7802    0.0000 C   0  0  0  0  0  0  0  0  0  0  0  0
    1.7530   -2.2802    0.0000 N   0  0  0  0  0  0  0  0  0  0  0  0
    2.3411   -3.6601    0.0000 C   0  0  0  0  0  0  0  0  0  0  0  0
  2  1  1  1  0  0  0 
  2  3  1  0  0  0  0 
  3  4  1  0  0  0  0 
  4  5  2  0  0  0  0 
  5  6  1  0  0  0  0 
  6  7  2  0  0  0  0 
  7  8  1  0  0  0  0 
  8  9  1  0  0  0  0 
  7 10  1  0  0  0  0 
 10 11  2  0  0  0  0 
  4 11  1  0  0  0  0 
 12  5  1  1  0  0  0 
 12 13  1  6  0  0  0 
 13 14  1  0  0  0  0 
 14 15  1  0  0  0  0 
 15 16  1  0  0  0  0 
 16 17  1  0  0  0  0 
  2 17  1  0  0  0  0 
 12 17  1  0  0  0  0 
 17 18  1  6  0  0  0 
 12 19  1  0  0  0  0 
 19 20  1  0  0  0  0 
 20 21  1  0  0  0  0 
  2 21  1  0  0  0  0 
 21 22  1  0  0  0  0 
M  END
> <SMILES>
[H][C@]12CC3=C(C=C(OC)C=C3)[C@@]3(CCCC[C@]13[H])CCN2C

$$$$

  CDK     06141809482D

  5  4  0  0  0  0  0  0  0  0999 V2000
    0.6488    0.5223    0.0000 N   0  0  0  0  0  0  0  0  0  0  0  0
    1.3988   -0.7767    0.0000 Pt  0  0  0  0  0  0  0  0  0  0  0  0
    2.8988   -0.7767    0.0000 N   0  0  0  0  0  0  0  0  0  0  0  0
   -0.0107   -1.2898    0.0000 Cl  0  0  0  0  0  0  0  0  0  0  0  0
    1.6593   -2.2539    0.0000 Cl  0  0  0  0  0  0  0  0  0  0  0  0
  1  2  1  0  0  0  0 
  2  3  1  0  0  0  0 
  2  4  1  0  0  0  0 
  2  5  1  0  0  0  0 
M  END
> <SMILES>
N[Pt](N)(Cl)Cl

$$$$

  CDK     06141809482D

 18 19  0  0  0  0  0  0  0  0999 V2000
   -7.5462   -0.6108    0.0000 C   0  0  0  0  0  0  0  0  0  0  0  0
   -6.2470   -1.3606    0.0000 C   0  0  0  0  0  0  0  0  0  0  0  0
   -4.9481   -0.6104    0.0000 C   0  0  0  0  0  0  0  0  0  0  0  0
   -3.6489   -1.3602    0.0000 S   0  0  0  0  0  0  0  0  0  0  0  0
   -2.3500   -0.6100    0.0000 C   0  0  0  0  0  0  0  0  0  0  0  0
   -1.0500   -1.3600    0.0000 C   0  0  0  0  0  0  0  0  0  0  0  0
    0.2500   -0.6100    0.0000 C   0  0  0  0  0  0  0  0  0  0  0  0
    0.2500    0.8900    0.0000 C   0  0  0  0  0  0  0  0  0  0  0  0
   -1.0500    1.6400    0.0000 C   0  0  0  0  0  0  0  0  0  0  0  0
   -2.3500    0.8900    0.0000 C   0  0  0  0  0  0  0  0  0  0  0  0
    1.6700    1.3500    0.0000 N   0  0  0  0  0  0  0  0  0  0  0  0
    2.5600    0.1400    0.0000 C   0  0  0  0  0  0  0  0  0  0  0  0
    4.0600    0.1429    0.0000 N   0  0  0  0  0  0  0  0  0  0  0  0
    4.8074    1.4434    0.0000 C   0  0  0  0  0  0  0  0  0  0  0  0
    4.0549    2.7410    0.0000 O   0  0  0  0  0  0  0  0  0  0  0  0
    6.3074    1.4464    0.0000 O   0  0  0  0  0  0  0  0  0  0  0  0
    7.0549    2.7469    0.0000 C   0  0  0  0  0  0  0  0  0  0  0  0
    1.6700   -1.0800    0.0000 N   0  0  0  0  0  0  0  0  0  0  0  0
  1  2  1  0  0  0  0 
  2  3  1  0  0  0  0 
  3  4  1  0  0  0  0 
  4  5  1  0  0  0  0 
  5  6  2  0  0  0  0 
  6  7  1  0  0  0  0 
  7  8  2  0  0  0  0 
  8  9  1  0  0  0  0 
  9 10  2  0  0  0  0 
  5 10  1  0  0  0  0 
  8 11  1  0  0  0  0 
 11 12  2  0  0  0  0 
 12 13  1  0  0  0  0 
 13 14  1  0  0  0  0 
 14 15  2  0  0  0  0 
 14 16  1  0  0  0  0 
 16 17  1  0  0  0  0 
 12 18  1  0  0  0  0 
  7 18  1  0  0  0  0 
M  END
> <SMILES>
CCCSC1=CC2=C(C=C1)N=C(NC(=O)OC)N2

$$$$

  CDK     06141809482D

 77 80  0  0  1  0  0  0  0  0999 V2000
  -13.6551   19.9046    0.0000 C   0  0  0  0  0  0  0  0  0  0  0  0
  -12.2748   19.3175    0.0000 C   0  0  0  0  0  0  0  0  0  0  0  0
  -12.0931   17.8285    0.0000 C   0  0  0  0  0  0  0  0  0  0  0  0
  -13.2918   16.9267    0.0000 C   0  0  0  0  0  0  0  0  0  0  0  0
  -10.7128   17.2414    0.0000 C   0  0  0  0  0  0  0  0  0  0  0  0
  -10.5311   15.7524    0.0000 C   0  0  0  0  0  0  0  0  0  0  0  0
  -11.7298   14.8506    0.0000 C   0  0  0  0  0  0  0  0  0  0  0  0
   -9.1508   15.1652    0.0000 C   0  0  0  0  0  0  0  0  0  0  0  0
   -8.9692   13.6763    0.0000 C   0  0  0  0  0  0  0  0  0  0  0  0
   -7.5889   13.0891    0.0000 C   0  0  0  0  0  0  0  0  0  0  0  0
   -7.4072   11.6002    0.0000 C   0  0  0  0  0  0  0  0  0  0  0  0
   -6.0269   11.0130    0.0000 C   0  0  0  0  0  0  0  0  0  0  0  0
   -5.8453    9.5240    0.0000 C   0  0  0  0  0  0  0  0  0  0  0  0
   -4.4650    8.9369    0.0000 C   0  0  0  0  0  0  0  0  0  0  0  0
   -4.2833    7.4479    0.0000 C   0  0  0  0  0  0  0  0  0  0  0  0
   -2.9030    6.8608    0.0000 C   0  0  0  0  0  0  0  0  0  0  0  0
   -1.7044    7.7626    0.0000 O   0  0  0  0  0  0  0  0  0  0  0  0
   -2.7214    5.3718    0.0000 N   0  0  0  0  0  0  0  0  0  0  0  0
   -3.9200    4.4700    0.0000 C   0  0  1  0  0  0  0  0  0  0  0  0
   -5.4200    4.4700    0.0000 C   0  0  0  0  0  0  0  0  0  0  0  0
   -6.1700    3.1700    0.0000 C   0  0  1  0  0  0  0  0  0  0  0  0
   -7.6182    2.7794    0.0000 O   0  0  0  0  0  0  0  0  0  0  0  0
   -3.9200    1.8800    0.0000 C   0  0  1  0  0  0  0  0  0  0  0  0
   -4.9792    0.8179    0.0000 N   0  0  0  0  0  0  0  0  0  0  0  0
   -6.4286    1.2042    0.0000 C   0  0  0  0  0  0  0  0  0  0  0  0
   -7.4879    0.1421    0.0000 C   0  0  0  0  0  0  0  0  0  0  0  0
   -8.9373    0.5284    0.0000 N   0  0  0  0  0  0  0  0  0  0  0  0
   -3.1700    0.5800    0.0000 N   0  0  0  0  0  0  0  0  0  0  0  0
   -3.9200   -0.7200    0.0000 C   0  0  0  0  0  0  0  0  0  0  0  0
   -5.4200   -0.7200    0.0000 O   0  0  0  0  0  0  0  0  0  0  0  0
   -3.1700   -2.0200    0.0000 C   0  0  2  0  0  0  0  0  0  0  0  0
   -3.6335   -3.4466    0.0000 C   0  0  1  0  0  0  0  0  0  0  0  0
   -5.0601   -3.9101    0.0000 O   0  0  0  0  0  0  0  0  0  0  0  0
   -2.4200   -4.3283    0.0000 C   0  0  0  0  0  0  0  0  0  0  0  0
   -1.2065   -3.4466    0.0000 C   0  0  0  0  0  0  0  0  0  0  0  0
   -1.6700   -2.0200    0.0000 N   0  0  0  0  0  0  0  0  0  0  0  0
   -0.9200   -0.7200    0.0000 C   0  0  0  0  0  0  0  0  0  0  0  0
   -1.6702    0.5789    0.0000 O   0  0  0  0  0  0  0  0  0  0  0  0
    0.5800   -0.7200    0.0000 C   0  0  1  0  0  0  0  0  0  0  0  0
    1.3300    0.5800    0.0000 N   0  0  0  0  0  0  0  0  0  0  0  0
    2.8300    0.5800    0.0000 C   0  0  0  0  0  0  0  0  0  0  0  0
    3.5780   -0.7202    0.0000 O   0  0  0  0  0  0  0  0  0  0  0  0
    3.5800    1.8700    0.0000 C   0  0  1  0  0  0  0  0  0  0  0  0
    2.8300    3.1700    0.0000 N   0  0  0  0  0  0  0  0  0  0  0  0
    3.5800    4.4700    0.0000 C   0  0  0  0  0  0  0  0  0  0  0  0
    5.0800    4.4700    0.0000 O   0  0  0  0  0  0  0  0  0  0  0  0
    2.8300    5.7700    0.0000 C   0  0  2  0  0  0  0  0  0  0  0  0
    3.2935    7.1966    0.0000 C   0  0  0  0  0  0  0  0  0  0  0  0
    2.0800    8.0783    0.0000 C   0  0  1  0  0  0  0  0  0  0  0  0
    2.0800    9.5783    0.0000 O   0  0  0  0  0  0  0  0  0  0  0  0
    0.8665    7.1966    0.0000 C   0  0  0  0  0  0  0  0  0  0  0  0
    1.3300    5.7700    0.0000 N   0  0  0  0  0  0  0  0  0  0  0  0
    0.5800    4.4700    0.0000 C   0  0  0  0  0  0  0  0  0  0  0  0
    1.3302    3.1711    0.0000 O   0  0  0  0  0  0  0  0  0  0  0  0
   -0.9200    4.4700    0.0000 C   0  0  1  0  0  0  0  0  0  0  0  0
   -1.6700    3.1700    0.0000 N   0  0  0  0  0  0  0  0  0  0  0  0
   -3.1700    3.1700    0.0000 C   0  0  0  0  0  0  0  0  0  0  0  0
   -2.4198    4.4689    0.0000 O   0  0  0  0  0  0  0  0  0  0  0  0
   -1.6702    5.7689    0.0000 C   0  0  1  0  0  0  0  0  0  0  0  0
   -0.9204    7.0681    0.0000 C   0  0  0  0  0  0  0  0  0  0  0  0
   -3.1702    5.7687    0.0000 O   0  0  0  0  0  0  0  0  0  0  0  0
    5.0800    1.8675    0.0000 C   0  0  2  0  0  0  0  0  0  0  0  0
    5.8322    3.1653    0.0000 O   0  0  0  0  0  0  0  0  0  0  0  0
    5.8278    0.5672    0.0000 C   0  0  1  0  0  0  0  0  0  0  0  0
    5.0756   -0.7306    0.0000 O   0  0  0  0  0  0  0  0  0  0  0  0
    7.3278    0.5647    0.0000 C   0  0  0  0  0  0  0  0  0  0  0  0
    8.0736    1.8662    0.0000 C   0  0  0  0  0  0  0  0  0  0  0  0
    9.5484    1.8855    0.0000 C   0  0  0  0  0  0  0  0  0  0  0  0
   10.3468    0.5635    0.0000 C   0  0  0  0  0  0  0  0  0  0  0  0
   11.8467    0.5808    0.0000 O   0  0  0  0  0  0  0  0  0  0  0  0
    9.6010   -0.7379    0.0000 C   0  0  0  0  0  0  0  0  0  0  0  0
    8.0568   -0.7175    0.0000 C   0  0  0  0  0  0  0  0  0  0  0  0
    1.3302   -2.0189    0.0000 C   0  0  2  0  0  0  0  0  0  0  0  0
    2.8302   -2.0187    0.0000 O   0  0  0  0  0  0  0  0  0  0  0  0
    0.5804   -3.3181    0.0000 C   0  0  0  0  0  0  0  0  0  0  0  0
    1.3306   -4.6170    0.0000 C   0  0  0  0  0  0  0  0  0  0  0  0
    0.5808   -5.9162    0.0000 N   0  0  0  0  0  0  0  0  0  0  0  0
  1  2  1  0  0  0  0 
  2  3  1  0  0  0  0 
  3  4  1  0  0  0  0 
  3  5  1  0  0  0  0 
  5  6  1  0  0  0  0 
  6  7  1  0  0  0  0 
  6  8  1  0  0  0  0 
  8  9  1  0  0  0  0 
  9 10  1  0  0  0  0 
 10 11  1  0  0  0  0 
 11 12  1  0  0  0  0 
 12 13  1  0  0  0  0 
 13 14  1  0  0  0  0 
 14 15  1  0  0  0  0 
 15 16  1  0  0  0  0 
 16 17  2  0  0  0  0 
 16 18  1  0  0  0  0 
 19 18  1  6  0  0  0 
 19 20  1  0  0  0  0 
 20 21  1  0  0  0  0 
 21 22  1  6  0  0  0 
 21 23  1  0  0  0  0 
 23 24  1  1  0  0  0 
 24 25  1  0  0  0  0 
 25 26  1  0  0  0  0 
 26 27  1  0  0  0  0 
 23 28  1  0  0  0  0 
 28 29  1  0  0  0  0 
 29 30  2  0  0  0  0 
 29 31  1  0  0  0  0 
 31 32  1  0  0  0  0 
 32 33  1  6  0  0  0 
 32 34  1  0  0  0  0 
 34 35  1  0  0  0  0 
 35 36  1  0  0  0  0 
 31 36  1  1  0  0  0 
 36 37  1  0  0  0  0 
 37 38  2  0  0  0  0 
 37 39  1  0  0  0  0 
 39 40  1  1  0  0  0 
 40 41  1  0  0  0  0 
 41 42  2  0  0  0  0 
 41 43  1  0  0  0  0 
 43 44  1  1  0  0  0 
 44 45  1  0  0  0  0 
 45 46  2  0  0  0  0 
 45 47  1  0  0  0  0 
 47 48  1  0  0  0  0 
 48 49  1  0  0  0  0 
 49 50  1  6  0  0  0 
 49 51  1  0  0  0  0 
 51 52  1  0  0  0  0 
 47 52  1  1  0  0  0 
 52 53  1  0  0  0  0 
 53 54  2  0  0  0  0 
 53 55  1  0  0  0  0 
 55 56  1  1  0  0  0 
 56 57  1  0  0  0  0 
 19 57  1  0  0  0  0 
 57 58  2  0  0  0  0 
 55 59  1  0  0  0  0 
 59 60  1  0  0  0  0 
 59 61  1  6  0  0  0 
 43 62  1  0  0  0  0 
 62 63  1  6  0  0  0 
 62 64  1  0  0  0  0 
 64 65  1  6  0  0  0 
 64 66  1  0  0  0  0 
 66 67  2  0  0  0  0 
 67 68  1  0  0  0  0 
 68 69  2  0  0  0  0 
 69 70  1  0  0  0  0 
 69 71  1  0  0  0  0 
 71 72  2  0  0  0  0 
 66 72  1  0  0  0  0 
 39 73  1  0  0  0  0 
 73 74  1  6  0  0  0 
 73 75  1  0  0  0  0 
 75 76  1  0  0  0  0 
 76 77  1  0  0  0  0 
M  END
> <SMILES>
CCC(C)CC(C)CCCCCCCCC(=O)N[C@H]1C[C@@H](O)[C@@H](NCCN)NC(=O)[C@@H]2[C@@H](O)CCN2C(=O)[C@@H](NC(=O)[C@@H](NC(=O)[C@@H]2C[C@@H](O)CN2C(=O)[C@@H](NC1=O)[C@@H](C)O)[C@H](O)[C@@H](O)C1=CC=C(O)C=C1)[C@H](O)CCN

$$$$

  CDK     06141809482D

 22 22  0  0  0  0  0  0  0  0999 V2000
    4.6768    2.4406    0.0000 C   0  0  0  0  0  0  0  0  0  0  0  0
    4.6770    0.9406    0.0000 C   0  0  0  0  0  0  0  0  0  0  0  0
    3.3781    0.1904    0.0000 C   0  0  0  0  0  0  0  0  0  0  0  0
    2.0789    0.9402    0.0000 C   0  0  0  0  0  0  0  0  0  0  0  0
    0.7800    0.1900    0.0000 C   0  0  0  0  0  0  0  0  0  0  0  0
    0.7800   -1.3100    0.0000 C   0  0  0  0  0  0  0  0  0  0  0  0
    2.0789   -2.0602    0.0000 C   0  0  0  0  0  0  0  0  0  0  0  0
   -0.5200   -2.0600    0.0000 C   0  0  0  0  0  0  0  0  0  0  0  0
   -1.8200   -1.3100    0.0000 C   0  0  0  0  0  0  0  0  0  0  0  0
   -1.8200    0.1900    0.0000 C   0  0  0  0  0  0  0  0  0  0  0  0
   -0.5200    0.9400    0.0000 C   0  0  0  0  0  0  0  0  0  0  0  0
    0.4441    2.0892    0.0000 C   0  0  0  0  0  0  0  0  0  0  0  0
   -1.4841    2.0892    0.0000 C   0  0  0  0  0  0  0  0  0  0  0  0
    5.9762    0.1908    0.0000 C   0  0  0  0  0  0  0  0  0  0  0  0
    7.2751    0.9410    0.0000 C   0  0  0  0  0  0  0  0  0  0  0  0
    8.5742    0.1912    0.0000 C   0  0  0  0  0  0  0  0  0  0  0  0
    9.8731    0.9415    0.0000 C   0  0  0  0  0  0  0  0  0  0  0  0
    9.8729    2.4415    0.0000 C   0  0  0  0  0  0  0  0  0  0  0  0
   11.1723    0.1917    0.0000 C   0  0  0  0  0  0  0  0  0  0  0  0
   12.4712    0.9419    0.0000 C   0  0  0  0  0  0  0  0  0  0  0  0
   13.7704    0.1921    0.0000 O   0  0  0  0  0  0  0  0  0  0  0  0
   12.4710    2.4419    0.0000 O   0  0  0  0  0  0  0  0  0  0  0  0
  1  2  1  0  0  0  0 
  2  3  1  4  0  0  0 
  3  4  2  0  0  0  0 
  4  5  1  0  0  0  0 
  5  6  2  0  0  0  0 
  6  7  1  0  0  0  0 
  6  8  1  0  0  0  0 
  8  9  1  0  0  0  0 
  9 10  1  0  0  0  0 
 10 11  1  0  0  0  0 
  5 11  1  0  0  0  0 
 11 12  1  0  0  0  0 
 11 13  1  0  0  0  0 
  2 14  2  0  0  0  0 
 14 15  1  4  0  0  0 
 15 16  2  0  0  0  0 
 16 17  1  0  0  0  0 
 17 18  1  4  0  0  0 
 17 19  2  0  0  0  0 
 19 20  1  0  0  0  0 
 20 21  1  0  0  0  0 
 20 22  2  0  0  0  0 
M  END
> <SMILES>
CC(C=CC1=C(C)CCCC1(C)C)=CC=CC(C)=CC(O)=O

$$$$

  CDK     06141809482D

 29 31  0  0  0  0  0  0  0  0999 V2000
   -9.0951    1.5010    0.0000 C   0  0  0  0  0  0  0  0  0  0  0  0
   -7.7962    0.7508    0.0000 O   0  0  0  0  0  0  0  0  0  0  0  0
   -6.4970    1.5006    0.0000 C   0  0  0  0  0  0  0  0  0  0  0  0
   -5.1981    0.7504    0.0000 C   0  0  0  0  0  0  0  0  0  0  0  0
   -3.8989    1.5002    0.0000 O   0  0  0  0  0  0  0  0  0  0  0  0
   -2.6000    0.7500    0.0000 C   0  0  0  0  0  0  0  0  0  0  0  0
   -2.6000   -0.7500    0.0000 C   0  0  0  0  0  0  0  0  0  0  0  0
   -3.8989   -1.5002    0.0000 O   0  0  0  0  0  0  0  0  0  0  0  0
   -3.8987   -3.0002    0.0000 C   0  0  0  0  0  0  0  0  0  0  0  0
   -5.1976   -3.7504    0.0000 C   0  0  0  0  0  0  0  0  0  0  0  0
   -5.1974   -5.2504    0.0000 O   0  0  0  0  0  0  0  0  0  0  0  0
   -6.4963   -6.0006    0.0000 C   0  0  0  0  0  0  0  0  0  0  0  0
   -1.3000   -1.5000    0.0000 C   0  0  0  0  0  0  0  0  0  0  0  0
    0.0000   -0.7500    0.0000 C   0  0  0  0  0  0  0  0  0  0  0  0
    1.3000   -1.5000    0.0000 C   0  0  0  0  0  0  0  0  0  0  0  0
    1.3000   -3.0000    0.0000 N   0  0  0  0  0  0  0  0  0  0  0  0
    2.5990   -3.7500    0.0000 C   0  0  0  0  0  0  0  0  0  0  0  0
    3.8989   -2.9998    0.0000 C   0  0  0  0  0  0  0  0  0  0  0  0
    5.1890   -3.7496    0.0000 C   0  0  0  0  0  0  0  0  0  0  0  0
    5.1893   -5.2496    0.0000 C   0  0  0  0  0  0  0  0  0  0  0  0
    3.8994   -5.9998    0.0000 C   0  0  0  0  0  0  0  0  0  0  0  0
    2.5993   -5.2500    0.0000 C   0  0  0  0  0  0  0  0  0  0  0  0
    3.9022   -7.4998    0.0000 C   0  0  0  0  0  0  0  0  0  0  0  0
    3.9049   -8.9998    0.0000 C   0  0  0  0  0  0  0  0  0  0  0  0
    2.6000   -0.7500    0.0000 N   0  0  0  0  0  0  0  0  0  0  0  0
    2.6000    0.7500    0.0000 C   0  0  0  0  0  0  0  0  0  0  0  0
    1.3000    1.5000    0.0000 N   0  0  0  0  0  0  0  0  0  0  0  0
    0.0000    0.7500    0.0000 C   0  0  0  0  0  0  0  0  0  0  0  0
   -1.3000    1.5000    0.0000 C   0  0  0  0  0  0  0  0  0  0  0  0
  1  2  1  0  0  0  0 
  2  3  1  0  0  0  0 
  3  4  1  0  0  0  0 
  4  5  1  0  0  0  0 
  5  6  1  0  0  0  0 
  6  7  2  0  0  0  0 
  7  8  1  0  0  0  0 
  8  9  1  0  0  0  0 
  9 10  1  0  0  0  0 
 10 11  1  0  0  0  0 
 11 12  1  0  0  0  0 
  7 13  1  0  0  0  0 
 13 14  2  0  0  0  0 
 14 15  1  0  0  0  0 
 15 16  1  0  0  0  0 
 16 17  1  0  0  0  0 
 17 18  2  0  0  0  0 
 18 19  1  0  0  0  0 
 19 20  2  0  0  0  0 
 20 21  1  0  0  0  0 
 21 22  2  0  0  0  0 
 17 22  1  0  0  0  0 
 21 23  1  0  0  0  0 
 23 24  3  0  0  0  0 
 15 25  2  0  0  0  0 
 25 26  1  0  0  0  0 
 26 27  2  0  0  0  0 
 27 28  1  0  0  0  0 
 14 28  1  0  0  0  0 
 28 29  2  0  0  0  0 
  6 29  1  0  0  0  0 
M  END
> <SMILES>
COCCOC1=C(OCCOC)C=C2C(NC3=CC=CC(=C3)C#C)=NC=NC2=C1

$$$$

  CDK     06141809482D

 14 14  0  0  0  0  0  0  0  0999 V2000
   -1.7900   -3.0596    0.0000 Cl  0  0  0  0  0  0  0  0  0  0  0  0
   -0.8259   -1.9104    0.0000 C   0  0  0  0  0  0  0  0  0  0  0  0
    0.6513   -2.1707    0.0000 C   0  0  0  0  0  0  0  0  0  0  0  0
    1.6154   -1.0216    0.0000 N   0  0  0  0  0  0  0  0  0  0  0  0
    1.1022    0.3879    0.0000 C   0  0  0  0  0  0  0  0  0  0  0  0
   -0.3751    0.6482    0.0000 C   0  0  0  0  0  0  0  0  0  0  0  0
   -0.8882    2.0577    0.0000 Cl  0  0  0  0  0  0  0  0  0  0  0  0
    3.0926   -1.2819    0.0000 P   0  0  0  0  0  0  0  0  0  0  0  0
    2.5799   -2.6915    0.0000 O   0  0  0  0  0  0  0  0  0  0  0  0
    3.0926    0.2181    0.0000 N   0  0  0  0  0  0  0  0  0  0  0  0
    4.3926    0.9681    0.0000 C   0  0  0  0  0  0  0  0  0  0  0  0
    5.6926    0.2181    0.0000 C   0  0  0  0  0  0  0  0  0  0  0  0
    5.6926   -1.2819    0.0000 C   0  0  0  0  0  0  0  0  0  0  0  0
    4.3926   -2.0319    0.0000 O   0  0  0  0  0  0  0  0  0  0  0  0
  1  2  1  0  0  0  0 
  2  3  1  0  0  0  0 
  3  4  1  0  0  0  0 
  4  5  1  0  0  0  0 
  5  6  1  0  0  0  0 
  6  7  1  0  0  0  0 
  4  8  1  0  0  0  0 
  8  9  2  0  0  0  0 
  8 10  1  0  0  0  0 
 10 11  1  0  0  0  0 
 11 12  1  0  0  0  0 
 12 13  1  0  0  0  0 
 13 14  1  0  0  0  0 
  8 14  1  0  0  0  0 
M  END
> <SMILES>
ClCCN(CCCl)P1(=O)NCCCO1

$$$$

  CDK     06141809482D

 29 31  0  0  0  0  0  0  0  0999 V2000
    7.7988    3.7844    0.0000 C   0  0  0  0  0  0  0  0  0  0  0  0
    6.5060    3.0237    0.0000 N   0  0  0  0  0  0  0  0  0  0  0  0
    6.5184    1.5237    0.0000 C   0  0  0  0  0  0  0  0  0  0  0  0
    5.2008    3.7629    0.0000 C   0  0  0  0  0  0  0  0  0  0  0  0
    3.9080    3.0022    0.0000 C   0  0  0  0  0  0  0  0  0  0  0  0
    2.6028    3.7415    0.0000 O   0  0  0  0  0  0  0  0  0  0  0  0
    1.3100    2.9808    0.0000 C   0  0  0  0  0  0  0  0  0  0  0  0
   -0.0400    3.7308    0.0000 C   0  0  0  0  0  0  0  0  0  0  0  0
   -1.3100    2.9808    0.0000 C   0  0  0  0  0  0  0  0  0  0  0  0
   -1.3100    1.4808    0.0000 C   0  0  0  0  0  0  0  0  0  0  0  0
   -0.0400    0.7308    0.0000 C   0  0  0  0  0  0  0  0  0  0  0  0
    1.3100    1.4808    0.0000 C   0  0  0  0  0  0  0  0  0  0  0  0
   -2.6127    0.7372    0.0000 C   0  0  0  0  0  0  0  0  0  0  0  0
   -3.9080    1.4936    0.0000 C   0  0  0  0  0  0  0  0  0  0  0  0
   -5.2107    0.7500    0.0000 C   0  0  0  0  0  0  0  0  0  0  0  0
   -6.5061    1.5064    0.0000 C   0  0  0  0  0  0  0  0  0  0  0  0
   -7.8088    0.7628    0.0000 Cl  0  0  0  0  0  0  0  0  0  0  0  0
   -3.9006    2.9936    0.0000 C   0  0  0  0  0  0  0  0  0  0  0  0
   -5.1969    3.7500    0.0000 C   0  0  0  0  0  0  0  0  0  0  0  0
   -5.1895    5.2500    0.0000 C   0  0  0  0  0  0  0  0  0  0  0  0
   -3.8859    5.9935    0.0000 C   0  0  0  0  0  0  0  0  0  0  0  0
   -2.5896    5.2372    0.0000 C   0  0  0  0  0  0  0  0  0  0  0  0
   -2.5970    3.7372    0.0000 C   0  0  0  0  0  0  0  0  0  0  0  0
   -2.6201   -0.7628    0.0000 C   0  0  0  0  0  0  0  0  0  0  0  0
   -1.3238   -1.5192    0.0000 C   0  0  0  0  0  0  0  0  0  0  0  0
   -1.3312   -3.0191    0.0000 C   0  0  0  0  0  0  0  0  0  0  0  0
   -2.6348   -3.7627    0.0000 C   0  0  0  0  0  0  0  0  0  0  0  0
   -3.9311   -3.0063    0.0000 C   0  0  0  0  0  0  0  0  0  0  0  0
   -3.9238   -1.5064    0.0000 C   0  0  0  0  0  0  0  0  0  0  0  0
  1  2  1  0  0  0  0 
  2  3  1  0  0  0  0 
  2  4  1  0  0  0  0 
  4  5  1  0  0  0  0 
  5  6  1  0  0  0  0 
  6  7  1  0  0  0  0 
  7  8  2  0  0  0  0 
  8  9  1  0  0  0  0 
  9 10  2  0  0  0  0 
 10 11  1  0  0  0  0 
 11 12  2  0  0  0  0 
  7 12  1  0  0  0  0 
 10 13  1  0  0  0  0 
 13 14  2  0  0  0  0 
 14 15  1  4  0  0  0 
 15 16  1  0  0  0  0 
 16 17  1  0  0  0  0 
 14 18  1  0  0  0  0 
 18 19  2  0  0  0  0 
 19 20  1  0  0  0  0 
 20 21  2  0  0  0  0 
 21 22  1  0  0  0  0 
 22 23  2  0  0  0  0 
 18 23  1  0  0  0  0 
 13 24  1  0  0  0  0 
 24 25  2  0  0  0  0 
 25 26  1  0  0  0  0 
 26 27  2  0  0  0  0 
 27 28  1  0  0  0  0 
 28 29  2  0  0  0  0 
 24 29  1  0  0  0  0 
M  END
> <SMILES>
CN(C)CCOC1=CC=C(C=C1)C(=C(CCCl)C1=CC=CC=C1)C1=CC=CC=C1

$$$$

  CDK     06141809482D

 16 17  0  0  0  0  0  0  0  0999 V2000
    2.5989   -1.5002    0.0000 N   0  0  0  0  0  0  0  0  0  0  0  0
    1.3000   -0.7500    0.0000 C   0  0  0  0  0  0  0  0  0  0  0  0
    0.0000   -1.5000    0.0000 N   0  0  0  0  0  0  0  0  0  0  0  0
   -1.3000   -0.7500    0.0000 C   0  0  0  0  0  0  0  0  0  0  0  0
   -2.5989   -1.5002    0.0000 N   0  0  0  0  0  0  0  0  0  0  0  0
   -1.3000    0.7500    0.0000 C   0  0  0  0  0  0  0  0  0  0  0  0
    0.0000    1.5000    0.0000 N   0  0  0  0  0  0  0  0  0  0  0  0
    1.3000    0.7500    0.0000 N   0  0  0  0  0  0  0  0  0  0  0  0
   -2.5989    1.5002    0.0000 C   0  0  0  0  0  0  0  0  0  0  0  0
   -3.8989    0.7502    0.0000 C   0  0  0  0  0  0  0  0  0  0  0  0
   -3.8989   -0.7498    0.0000 Cl  0  0  0  0  0  0  0  0  0  0  0  0
   -5.1989    1.5002    0.0000 C   0  0  0  0  0  0  0  0  0  0  0  0
   -6.4978    0.7500    0.0000 Cl  0  0  0  0  0  0  0  0  0  0  0  0
   -5.1989    3.0002    0.0000 C   0  0  0  0  0  0  0  0  0  0  0  0
   -3.8989    3.7502    0.0000 C   0  0  0  0  0  0  0  0  0  0  0  0
   -2.5989    3.0002    0.0000 C   0  0  0  0  0  0  0  0  0  0  0  0
  1  2  1  0  0  0  0 
  2  3  2  0  0  0  0 
  3  4  1  0  0  0  0 
  4  5  1  0  0  0  0 
  4  6  2  0  0  0  0 
  6  7  1  0  0  0  0 
  7  8  2  0  0  0  0 
  2  8  1  0  0  0  0 
  6  9  1  0  0  0  0 
  9 10  2  0  0  0  0 
 10 11  1  0  0  0  0 
 10 12  1  0  0  0  0 
 12 13  1  0  0  0  0 
 12 14  2  0  0  0  0 
 14 15  1  0  0  0  0 
 15 16  2  0  0  0  0 
  9 16  1  0  0  0  0 
M  END
> <SMILES>
NC1=NC(N)=C(N=N1)C1=C(Cl)C(Cl)=CC=C1

$$$$

  CDK     06141809482D

 33 35  0  0  1  0  0  0  0  0999 V2000
   -6.4970    1.5006    0.0000 C   0  0  0  0  0  0  0  0  0  0  0  0
   -5.1981    0.7504    0.0000 N   0  0  0  0  0  0  0  0  0  0  0  0
   -3.8989    1.5002    0.0000 C   0  0  0  0  0  0  0  0  0  0  0  0
   -2.6000    0.7500    0.0000 C   0  0  0  0  0  0  0  0  0  0  0  0
   -2.6000   -0.7500    0.0000 C   0  0  0  0  0  0  0  0  0  0  0  0
   -1.3000   -1.5000    0.0000 N   0  0  0  0  0  0  0  0  0  0  0  0
    0.0000   -0.7500    0.0000 C   0  0  0  0  0  0  0  0  0  0  0  0
    1.3000   -1.5000    0.0000 N   0  0  0  0  0  0  0  0  0  0  0  0
    2.6000   -0.7500    0.0000 C   0  0  0  0  0  0  0  0  0  0  0  0
    3.8989   -1.5002    0.0000 N   0  0  0  0  0  0  0  0  0  0  0  0
    2.6000    0.7500    0.0000 N   0  0  0  0  0  0  0  0  0  0  0  0
    1.3000    1.5000    0.0000 C   0  0  0  0  0  0  0  0  0  0  0  0
    1.3000    3.0000    0.0000 N   0  0  0  0  0  0  0  0  0  0  0  0
    0.0000    0.7500    0.0000 C   0  0  0  0  0  0  0  0  0  0  0  0
   -1.3000    1.5000    0.0000 N   0  0  0  0  0  0  0  0  0  0  0  0
   -5.1983   -0.7496    0.0000 C   0  0  0  0  0  0  0  0  0  0  0  0
   -3.8988   -1.5004    0.0000 C   0  0  0  0  0  0  0  0  0  0  0  0
   -3.8983   -3.0012    0.0000 C   0  0  0  0  0  0  0  0  0  0  0  0
   -5.1974   -3.7512    0.0000 C   0  0  0  0  0  0  0  0  0  0  0  0
   -6.4969   -3.0004    0.0000 C   0  0  0  0  0  0  0  0  0  0  0  0
   -6.4974   -1.4996    0.0000 C   0  0  0  0  0  0  0  0  0  0  0  0
   -5.1976   -5.2512    0.0000 C   0  0  0  0  0  0  0  0  0  0  0  0
   -3.8987   -6.0015    0.0000 O   0  0  0  0  0  0  0  0  0  0  0  0
   -6.4968   -6.0010    0.0000 N   0  0  0  0  0  0  0  0  0  0  0  0
   -6.4970   -7.5010    0.0000 C   0  0  1  0  0  0  0  0  0  0  0  0
   -7.7962   -8.2508    0.0000 C   0  0  0  0  0  0  0  0  0  0  0  0
   -7.7964   -9.7508    0.0000 C   0  0  0  0  0  0  0  0  0  0  0  0
   -9.0956  -10.5006    0.0000 C   0  0  0  0  0  0  0  0  0  0  0  0
   -9.0958  -12.0006    0.0000 O   0  0  0  0  0  0  0  0  0  0  0  0
  -10.3945   -9.7504    0.0000 O   0  0  0  0  0  0  0  0  0  0  0  0
   -5.1981   -8.2512    0.0000 C   0  0  0  0  0  0  0  0  0  0  0  0
   -5.1983   -9.7512    0.0000 O   0  0  0  0  0  0  0  0  0  0  0  0
   -3.8989   -7.5015    0.0000 O   0  0  0  0  0  0  0  0  0  0  0  0
  1  2  1  0  0  0  0 
  2  3  1  0  0  0  0 
  3  4  1  0  0  0  0 
  4  5  2  0  0  0  0 
  5  6  1  0  0  0  0 
  6  7  2  0  0  0  0 
  7  8  1  0  0  0  0 
  8  9  2  0  0  0  0 
  9 10  1  0  0  0  0 
  9 11  1  0  0  0  0 
 11 12  2  0  0  0  0 
 12 13  1  0  0  0  0 
 12 14  1  0  0  0  0 
  7 14  1  0  0  0  0 
 14 15  2  0  0  0  0 
  4 15  1  0  0  0  0 
  2 16  1  0  0  0  0 
 16 17  2  0  0  0  0 
 17 18  1  0  0  0  0 
 18 19  2  0  0  0  0 
 19 20  1  0  0  0  0 
 20 21  2  0  0  0  0 
 16 21  1  0  0  0  0 
 19 22  1  0  0  0  0 
 22 23  2  0  0  0  0 
 22 24  1  0  0  0  0 
 25 24  1  6  0  0  0 
 25 26  1  0  0  0  0 
 26 27  1  0  0  0  0 
 27 28  1  0  0  0  0 
 28 29  1  0  0  0  0 
 28 30  2  0  0  0  0 
 25 31  1  0  0  0  0 
 31 32  1  0  0  0  0 
 31 33  2  0  0  0  0 
M  END
> <SMILES>
CN(CC1=CN=C2N=C(N)N=C(N)C2=N1)C1=CC=C(C=C1)C(=O)N[C@@H](CCC(O)=O)C(O)=O

$$$$

  CDK     06141809482D

 14 15  0  0  0  0  0  0  0  0999 V2000
    0.7604   -5.1833    0.0000 Cl  0  0  0  0  0  0  0  0  0  0  0  0
    0.4454   -3.7168    0.0000 C   0  0  0  0  0  0  0  0  0  0  0  0
   -0.9829   -3.2559    0.0000 C   0  0  0  0  0  0  0  0  0  0  0  0
   -1.2989   -1.7887    0.0000 C   0  0  0  0  0  0  0  0  0  0  0  0
   -0.1865   -0.7824    0.0000 C   0  0  0  0  0  0  0  0  0  0  0  0
    1.2418   -1.2433    0.0000 C   0  0  0  0  0  0  0  0  0  0  0  0
    2.3542   -0.2370    0.0000 Cl  0  0  0  0  0  0  0  0  0  0  0  0
    1.5577   -2.7105    0.0000 C   0  0  0  0  0  0  0  0  0  0  0  0
    2.9855   -3.1705    0.0000 N   0  0  0  0  0  0  0  0  0  0  0  0
    4.0977   -2.1640    0.0000 C   0  0  0  0  0  0  0  0  0  0  0  0
    5.5574   -2.4756    0.0000 N   0  0  0  0  0  0  0  0  0  0  0  0
    6.3074   -1.1766    0.0000 C   0  0  0  0  0  0  0  0  0  0  0  0
    5.3077   -0.0682    0.0000 C   0  0  0  0  0  0  0  0  0  0  0  0
    3.9319   -0.6711    0.0000 N   0  0  0  0  0  0  0  0  0  0  0  0
  1  2  1  0  0  0  0 
  2  3  2  0  0  0  0 
  3  4  1  0  0  0  0 
  4  5  2  0  0  0  0 
  5  6  1  0  0  0  0 
  6  7  1  0  0  0  0 
  6  8  2  0  0  0  0 
  2  8  1  0  0  0  0 
  8  9  1  0  0  0  0 
  9 10  1  0  0  0  0 
 10 11  2  0  0  0  0 
 11 12  1  0  0  0  0 
 12 13  1  0  0  0  0 
 13 14  1  0  0  0  0 
 10 14  1  0  0  0  0 
M  END
> <SMILES>
ClC1=CC=CC(Cl)=C1NC1=NCCN1

$$$$

  CDK     06141809482D

 27 28  0  0  1  0  0  0  0  0999 V2000
   -9.2148   -4.7218    0.0000 C   0  0  0  0  0  0  0  0  0  0  0  0
   -7.9172   -5.4744    0.0000 C   0  0  0  0  0  0  0  0  0  0  0  0
   -6.6167   -4.7269    0.0000 O   0  0  0  0  0  0  0  0  0  0  0  0
   -5.3191   -5.4794    0.0000 C   0  0  0  0  0  0  0  0  0  0  0  0
   -5.3221   -6.9794    0.0000 O   0  0  0  0  0  0  0  0  0  0  0  0
   -4.0186   -4.7320    0.0000 C   0  0  2  0  0  0  0  0  0  0  0  0
   -4.0157   -3.2320    0.0000 C   0  0  0  0  0  0  0  0  0  0  0  0
   -5.3133   -2.4794    0.0000 C   0  0  0  0  0  0  0  0  0  0  0  0
   -5.3103   -0.9794    0.0000 C   0  0  0  0  0  0  0  0  0  0  0  0
   -6.6089   -0.2269    0.0000 C   0  0  0  0  0  0  0  0  0  0  0  0
   -6.6059    1.2731    0.0000 C   0  0  0  0  0  0  0  0  0  0  0  0
   -5.3045    2.0205    0.0000 C   0  0  0  0  0  0  0  0  0  0  0  0
   -4.0059    1.2680    0.0000 C   0  0  0  0  0  0  0  0  0  0  0  0
   -4.0089   -0.2320    0.0000 C   0  0  0  0  0  0  0  0  0  0  0  0
   -2.7211   -5.4845    0.0000 N   0  0  0  0  0  0  0  0  0  0  0  0
   -1.4206   -4.7371    0.0000 C   0  0  1  0  0  0  0  0  0  0  0  0
   -1.4176   -3.2371    0.0000 C   0  0  0  0  0  0  0  0  0  0  0  0
   -0.1230   -5.4896    0.0000 C   0  0  0  0  0  0  0  0  0  0  0  0
   -0.1259   -6.9896    0.0000 O   0  0  0  0  0  0  0  0  0  0  0  0
    1.1775   -4.7421    0.0000 N   0  0  0  0  0  0  0  0  0  0  0  0
    1.3346   -3.2542    0.0000 C   0  0  0  0  0  0  0  0  0  0  0  0
    2.8030   -2.9376    0.0000 C   0  0  0  0  0  0  0  0  0  0  0  0
    3.5530   -4.2367    0.0000 C   0  0  0  0  0  0  0  0  0  0  0  0
    2.5496   -5.3587    0.0000 C   0  0  1  0  0  0  0  0  0  0  0  0
    2.8614   -6.8259    0.0000 C   0  0  0  0  0  0  0  0  0  0  0  0
    4.2880   -7.2895    0.0000 O   0  0  0  0  0  0  0  0  0  0  0  0
    1.7467   -7.8296    0.0000 O   0  0  0  0  0  0  0  0  0  0  0  0
  1  2  1  0  0  0  0 
  2  3  1  0  0  0  0 
  3  4  1  0  0  0  0 
  4  5  2  0  0  0  0 
  4  6  1  0  0  0  0 
  6  7  1  0  0  0  0 
  7  8  1  0  0  0  0 
  8  9  1  0  0  0  0 
  9 10  2  0  0  0  0 
 10 11  1  0  0  0  0 
 11 12  2  0  0  0  0 
 12 13  1  0  0  0  0 
 13 14  2  0  0  0  0 
  9 14  1  0  0  0  0 
  6 15  1  6  0  0  0 
 15 16  1  0  0  0  0 
 16 17  1  1  0  0  0 
 16 18  1  0  0  0  0 
 18 19  2  0  0  0  0 
 18 20  1  0  0  0  0 
 20 21  1  0  0  0  0 
 21 22  1  0  0  0  0 
 22 23  1  0  0  0  0 
 23 24  1  0  0  0  0 
 20 24  1  0  0  0  0 
 24 25  1  1  0  0  0 
 25 26  1  0  0  0  0 
 25 27  2  0  0  0  0 
M  END
> <SMILES>
CCOC(=O)[C@H](CCC1=CC=CC=C1)N[C@@H](C)C(=O)N1CCC[C@H]1C(O)=O

$$$$

  CDK     06141809482D

 21 21  0  0  0  0  0  0  0  0999 V2000
  -10.2457    5.2527    0.0000 C   0  0  0  0  0  0  0  0  0  0  0  0
   -8.7540    5.4102    0.0000 N   0  0  0  0  0  0  0  0  0  0  0  0
   -7.8718    4.1971    0.0000 C   0  0  0  0  0  0  0  0  0  0  0  0
   -6.3801    4.3545    0.0000 N   0  0  0  0  0  0  0  0  0  0  0  0
   -5.4979    3.1414    0.0000 C   0  0  0  0  0  0  0  0  0  0  0  0
   -4.0061    3.2988    0.0000 C   0  0  0  0  0  0  0  0  0  0  0  0
   -3.1239    2.0857    0.0000 S   0  0  0  0  0  0  0  0  0  0  0  0
   -1.6322    2.2431    0.0000 C   0  0  0  0  0  0  0  0  0  0  0  0
   -0.7500    1.0300    0.0000 C   0  0  0  0  0  0  0  0  0  0  0  0
   -1.2100   -0.3900    0.0000 C   0  0  0  0  0  0  0  0  0  0  0  0
    0.0000   -1.2800    0.0000 S   0  0  0  0  0  0  0  0  0  0  0  0
    1.2100   -0.3900    0.0000 C   0  0  0  0  0  0  0  0  0  0  0  0
    2.6377   -0.8500    0.0000 C   0  0  0  0  0  0  0  0  0  0  0  0
    2.9533   -2.3164    0.0000 N   0  0  0  0  0  0  0  0  0  0  0  0
    4.3810   -2.7764    0.0000 C   0  0  0  0  0  0  0  0  0  0  0  0
    1.8410   -3.3229    0.0000 C   0  0  0  0  0  0  0  0  0  0  0  0
    0.7500    1.0300    0.0000 N   0  0  0  0  0  0  0  0  0  0  0  0
   -8.4813    2.8265    0.0000 C   0  0  0  0  0  0  0  0  0  0  0  0
   -9.9730    2.6690    0.0000 N   0  0  0  0  0  0  0  0  0  0  0  0
  -10.8552    3.8822    0.0000 O   0  0  0  0  0  0  0  0  0  0  0  0
  -10.5825    1.2984    0.0000 O   0  0  0  0  0  0  0  0  0  0  0  0
  1  2  1  0  0  0  0 
  2  3  1  4  0  0  0 
  3  4  1  0  0  0  0 
  4  5  1  0  0  0  0 
  5  6  1  0  0  0  0 
  6  7  1  0  0  0  0 
  7  8  1  0  0  0  0 
  8  9  1  0  0  0  0 
  9 10  2  0  0  0  0 
 10 11  1  0  0  0  0 
 11 12  1  0  0  0  0 
 12 13  1  0  0  0  0 
 13 14  1  0  0  0  0 
 14 15  1  0  0  0  0 
 14 16  1  0  0  0  0 
 12 17  2  0  0  0  0 
  9 17  1  0  0  0  0 
  3 18  2  0  0  0  0 
 18 19  1  0  0  0  0 
 19 20  1  0  0  0  0 
 19 21  2  0  0  0  0 
M  CHG  1  19   1
M  CHG  1  20  -1
M  END
> <SMILES>
CNC(NCCSCC1=CSC(CN(C)C)=N1)=C[N+]([O-])=O

$$$$

  CDK     06141809482D

 19 20  0  0  0  0  0  0  0  0999 V2000
    4.8756    0.8744    0.0000 O   0  0  0  0  0  0  0  0  0  0  0  0
    3.5679    0.1397    0.0000 C   0  0  0  0  0  0  0  0  0  0  0  0
    3.5504   -1.3602    0.0000 O   0  0  0  0  0  0  0  0  0  0  0  0
    2.2777    0.9048    0.0000 C   0  0  0  0  0  0  0  0  0  0  0  0
    0.9700    0.1700    0.0000 C   0  0  0  0  0  0  0  0  0  0  0  0
    0.9500   -1.3100    0.0000 C   0  0  0  0  0  0  0  0  0  0  0  0
   -0.3400   -2.0400    0.0000 C   0  0  0  0  0  0  0  0  0  0  0  0
   -1.6100   -1.2900    0.0000 C   0  0  0  0  0  0  0  0  0  0  0  0
   -1.6200    0.2100    0.0000 C   0  0  0  0  0  0  0  0  0  0  0  0
   -0.3000    0.9200    0.0000 C   0  0  0  0  0  0  0  0  0  0  0  0
   -0.2700    2.4197    0.0000 N   0  0  0  0  0  0  0  0  0  0  0  0
   -1.5538    3.1955    0.0000 C   0  0  0  0  0  0  0  0  0  0  0  0
   -2.8684    2.4714    0.0000 C   0  0  0  0  0  0  0  0  0  0  0  0
   -2.8982    0.9717    0.0000 Cl  0  0  0  0  0  0  0  0  0  0  0  0
   -4.1533    3.2470    0.0000 C   0  0  0  0  0  0  0  0  0  0  0  0
   -4.1236    4.7467    0.0000 C   0  0  0  0  0  0  0  0  0  0  0  0
   -2.8090    5.4708    0.0000 C   0  0  0  0  0  0  0  0  0  0  0  0
   -1.5241    4.6952    0.0000 C   0  0  0  0  0  0  0  0  0  0  0  0
   -0.2106    5.4195    0.0000 Cl  0  0  0  0  0  0  0  0  0  0  0  0
  1  2  1  0  0  0  0 
  2  3  2  0  0  0  0 
  2  4  1  0  0  0  0 
  4  5  1  0  0  0  0 
  5  6  2  0  0  0  0 
  6  7  1  0  0  0  0 
  7  8  2  0  0  0  0 
  8  9  1  0  0  0  0 
  9 10  2  0  0  0  0 
  5 10  1  0  0  0  0 
 10 11  1  0  0  0  0 
 11 12  1  0  0  0  0 
 12 13  2  0  0  0  0 
 13 14  1  0  0  0  0 
 13 15  1  0  0  0  0 
 15 16  2  0  0  0  0 
 16 17  1  0  0  0  0 
 17 18  2  0  0  0  0 
 12 18  1  0  0  0  0 
 18 19  1  0  0  0  0 
M  END
> <SMILES>
OC(=O)CC1=CC=CC=C1NC1=C(Cl)C=CC=C1Cl

$$$$

  CDK     06141809482D

 33 37  0  0  0  0  0  0  0  0999 V2000
   -5.1981    0.7504    0.0000 C   0  0  0  0  0  0  0  0  0  0  0  0
   -3.8989    1.5002    0.0000 O   0  0  0  0  0  0  0  0  0  0  0  0
   -2.6000    0.7500    0.0000 C   0  0  0  0  0  0  0  0  0  0  0  0
   -2.6000   -0.7500    0.0000 C   0  0  0  0  0  0  0  0  0  0  0  0
   -3.8989   -1.5002    0.0000 O   0  0  0  0  0  0  0  0  0  0  0  0
   -5.1981   -0.7504    0.0000 C   0  0  0  0  0  0  0  0  0  0  0  0
   -1.3000   -1.5000    0.0000 C   0  0  0  0  0  0  0  0  0  0  0  0
    0.0000   -0.7500    0.0000 C   0  0  0  0  0  0  0  0  0  0  0  0
    1.3000   -1.5000    0.0000 C   0  0  0  0  0  0  0  0  0  0  0  0
    1.3000   -3.0000    0.0000 N   0  0  0  0  0  0  0  0  0  0  0  0
    2.6000   -0.7500    0.0000 N   0  0  0  0  0  0  0  0  0  0  0  0
    2.6000    0.7500    0.0000 C   0  0  0  0  0  0  0  0  0  0  0  0
    1.3000    1.5000    0.0000 N   0  0  0  0  0  0  0  0  0  0  0  0
    0.0000    0.7500    0.0000 C   0  0  0  0  0  0  0  0  0  0  0  0
   -1.3000    1.5000    0.0000 C   0  0  0  0  0  0  0  0  0  0  0  0
    3.8989    1.5002    0.0000 N   0  0  0  0  0  0  0  0  0  0  0  0
    5.1989    0.7502    0.0000 C   0  0  0  0  0  0  0  0  0  0  0  0
    6.4989    1.5002    0.0000 C   0  0  0  0  0  0  0  0  0  0  0  0
    6.4989    3.0002    0.0000 N   0  0  0  0  0  0  0  0  0  0  0  0
    5.1989    3.7502    0.0000 C   0  0  0  0  0  0  0  0  0  0  0  0
    3.8989    3.0002    0.0000 C   0  0  0  0  0  0  0  0  0  0  0  0
    7.7978    3.7504    0.0000 C   0  0  0  0  0  0  0  0  0  0  0  0
    7.7976    5.2504    0.0000 O   0  0  0  0  0  0  0  0  0  0  0  0
    9.0970    3.0006    0.0000 C   0  0  0  0  0  0  0  0  0  0  0  0
    9.0975    1.5006    0.0000 C   0  0  0  0  0  0  0  0  0  0  0  0
   10.3977    0.7510    0.0000 O   0  0  0  0  0  0  0  0  0  0  0  0
   11.6975    1.5015    0.0000 C   0  0  0  0  0  0  0  0  0  0  0  0
   12.9977    0.7519    0.0000 C   0  0  0  0  0  0  0  0  0  0  0  0
   14.2975    1.5023    0.0000 C   0  0  0  0  0  0  0  0  0  0  0  0
   14.2970    3.0023    0.0000 C   0  0  0  0  0  0  0  0  0  0  0  0
   12.9968    3.7519    0.0000 C   0  0  0  0  0  0  0  0  0  0  0  0
   11.6970    3.0015    0.0000 C   0  0  0  0  0  0  0  0  0  0  0  0
   10.3968    3.7510    0.0000 O   0  0  0  0  0  0  0  0  0  0  0  0
  1  2  1  0  0  0  0 
  2  3  1  0  0  0  0 
  3  4  2  0  0  0  0 
  4  5  1  0  0  0  0 
  5  6  1  0  0  0  0 
  4  7  1  0  0  0  0 
  7  8  2  0  0  0  0 
  8  9  1  0  0  0  0 
  9 10  1  0  0  0  0 
  9 11  2  0  0  0  0 
 11 12  1  0  0  0  0 
 12 13  2  0  0  0  0 
 13 14  1  0  0  0  0 
  8 14  1  0  0  0  0 
 14 15  2  0  0  0  0 
  3 15  1  0  0  0  0 
 12 16  1  0  0  0  0 
 16 17  1  0  0  0  0 
 17 18  1  0  0  0  0 
 18 19  1  0  0  0  0 
 19 20  1  0  0  0  0 
 20 21  1  0  0  0  0 
 16 21  1  0  0  0  0 
 19 22  1  0  0  0  0 
 22 23  2  0  0  0  0 
 22 24  1  0  0  0  0 
 24 25  1  0  0  0  0 
 25 26  1  0  0  0  0 
 26 27  1  0  0  0  0 
 27 28  2  0  0  0  0 
 28 29  1  0  0  0  0 
 29 30  2  0  0  0  0 
 30 31  1  0  0  0  0 
 31 32  2  0  0  0  0 
 27 32  1  0  0  0  0 
 32 33  1  0  0  0  0 
 24 33  1  0  0  0  0 
M  END
> <SMILES>
COC1=C(OC)C=C2C(N)=NC(=NC2=C1)N1CCN(CC1)C(=O)C1COC2=CC=CC=C2O1

$$$$

  CDK     06141809482D

 22 23  0  0  0  0  0  0  0  0999 V2000
    6.7313   10.3712    0.0000 C   0  0  0  0  0  0  0  0  0  0  0  0
    5.4310    9.6234    0.0000 C   0  0  0  0  0  0  0  0  0  0  0  0
    5.4285    8.1234    0.0000 N   0  0  0  0  0  0  0  0  0  0  0  0
    6.7263    7.3712    0.0000 C   0  0  0  0  0  0  0  0  0  0  0  0
    8.0266    8.1190    0.0000 C   0  0  0  0  0  0  0  0  0  0  0  0
    4.1282    7.3756    0.0000 C   0  0  0  0  0  0  0  0  0  0  0  0
    4.1257    5.8756    0.0000 C   0  0  0  0  0  0  0  0  0  0  0  0
    2.8254    5.1278    0.0000 C   0  0  0  0  0  0  0  0  0  0  0  0
    2.8228    3.6278    0.0000 C   0  0  0  0  0  0  0  0  0  0  0  0
    4.1206    2.8756    0.0000 C   0  0  0  0  0  0  0  0  0  0  0  0
    1.5225    2.8800    0.0000 N   0  0  0  0  0  0  0  0  0  0  0  0
    1.5200    1.3800    0.0000 C   0  0  0  0  0  0  0  0  0  0  0  0
    0.2200    0.6200    0.0000 C   0  0  0  0  0  0  0  0  0  0  0  0
   -1.0800    1.3800    0.0000 C   0  0  0  0  0  0  0  0  0  0  0  0
   -2.3800    0.6200    0.0000 C   0  0  0  0  0  0  0  0  0  0  0  0
   -2.3800   -0.8800    0.0000 C   0  0  0  0  0  0  0  0  0  0  0  0
   -3.6767   -1.6340    0.0000 Cl  0  0  0  0  0  0  0  0  0  0  0  0
   -1.0800   -1.6200    0.0000 C   0  0  0  0  0  0  0  0  0  0  0  0
    0.2200   -0.8800    0.0000 C   0  0  0  0  0  0  0  0  0  0  0  0
    1.5200   -1.6200    0.0000 N   0  0  0  0  0  0  0  0  0  0  0  0
    2.8100   -0.8800    0.0000 C   0  0  0  0  0  0  0  0  0  0  0  0
    2.8100    0.6200    0.0000 C   0  0  0  0  0  0  0  0  0  0  0  0
  1  2  1  0  0  0  0 
  2  3  1  0  0  0  0 
  3  4  1  0  0  0  0 
  4  5  1  0  0  0  0 
  3  6  1  0  0  0  0 
  6  7  1  0  0  0  0 
  7  8  1  0  0  0  0 
  8  9  1  0  0  0  0 
  9 10  1  0  0  0  0 
  9 11  1  0  0  0  0 
 11 12  1  0  0  0  0 
 12 13  2  0  0  0  0 
 13 14  1  0  0  0  0 
 14 15  2  0  0  0  0 
 15 16  1  0  0  0  0 
 16 17  1  0  0  0  0 
 16 18  2  0  0  0  0 
 18 19  1  0  0  0  0 
 13 19  1  0  0  0  0 
 19 20  2  0  0  0  0 
 20 21  1  0  0  0  0 
 21 22  2  0  0  0  0 
 12 22  1  0  0  0  0 
M  END
> <SMILES>
CCN(CC)CCCC(C)NC1=C2C=CC(Cl)=CC2=NC=C1

$$$$

  CDK     06141809482D

 30 33  0  0  0  0  0  0  0  0999 V2000
   -8.1400   10.2090    0.0000 O   0  0  0  0  0  0  0  0  0  0  0  0
   -6.8397    9.4612    0.0000 C   0  0  0  0  0  0  0  0  0  0  0  0
   -6.8372    7.9612    0.0000 C   0  0  0  0  0  0  0  0  0  0  0  0
   -5.5369    7.2134    0.0000 N   0  0  0  0  0  0  0  0  0  0  0  0
   -5.5342    5.7125    0.0000 C   0  0  0  0  0  0  0  0  0  0  0  0
   -4.2335    4.9637    0.0000 C   0  0  0  0  0  0  0  0  0  0  0  0
   -2.9356    5.7156    0.0000 N   0  0  0  0  0  0  0  0  0  0  0  0
   -1.6353    4.9678    0.0000 C   0  0  0  0  0  0  0  0  0  0  0  0
   -1.6328    3.4678    0.0000 C   0  0  0  0  0  0  0  0  0  0  0  0
   -0.3325    2.7200    0.0000 C   0  0  0  0  0  0  0  0  0  0  0  0
   -0.3300    1.2200    0.0000 N   0  0  0  0  0  0  0  0  0  0  0  0
   -1.6200    0.4700    0.0000 C   0  0  0  0  0  0  0  0  0  0  0  0
   -2.9200    1.2200    0.0000 C   0  0  0  0  0  0  0  0  0  0  0  0
   -4.2200    0.4700    0.0000 C   0  0  0  0  0  0  0  0  0  0  0  0
   -4.2200   -1.0300    0.0000 C   0  0  0  0  0  0  0  0  0  0  0  0
   -2.9200   -1.7800    0.0000 C   0  0  0  0  0  0  0  0  0  0  0  0
   -1.6200   -1.0300    0.0000 C   0  0  0  0  0  0  0  0  0  0  0  0
   -0.3300   -1.7800    0.0000 S   0  0  0  0  0  0  0  0  0  0  0  0
    0.9700   -1.0300    0.0000 C   0  0  0  0  0  0  0  0  0  0  0  0
    0.9700    0.4700    0.0000 C   0  0  0  0  0  0  0  0  0  0  0  0
    2.2700    1.2200    0.0000 C   0  0  0  0  0  0  0  0  0  0  0  0
    3.5700    0.4700    0.0000 C   0  0  0  0  0  0  0  0  0  0  0  0
    3.5700   -1.0300    0.0000 C   0  0  0  0  0  0  0  0  0  0  0  0
    2.2700   -1.7800    0.0000 C   0  0  0  0  0  0  0  0  0  0  0  0
    4.8689    1.2202    0.0000 C   0  0  0  0  0  0  0  0  0  0  0  0
    6.1681    0.4704    0.0000 F   0  0  0  0  0  0  0  0  0  0  0  0
    5.8329    2.3694    0.0000 F   0  0  0  0  0  0  0  0  0  0  0  0
    3.9046    2.3691    0.0000 F   0  0  0  0  0  0  0  0  0  0  0  0
   -2.9384    7.2165    0.0000 C   0  0  0  0  0  0  0  0  0  0  0  0
   -4.2390    7.9653    0.0000 C   0  0  0  0  0  0  0  0  0  0  0  0
  1  2  1  0  0  0  0 
  2  3  1  0  0  0  0 
  3  4  1  0  0  0  0 
  4  5  1  0  0  0  0 
  5  6  1  0  0  0  0 
  6  7  1  0  0  0  0 
  7  8  1  0  0  0  0 
  8  9  1  0  0  0  0 
  9 10  1  0  0  0  0 
 10 11  1  0  0  0  0 
 11 12  1  0  0  0  0 
 12 13  2  0  0  0  0 
 13 14  1  0  0  0  0 
 14 15  2  0  0  0  0 
 15 16  1  0  0  0  0 
 16 17  2  0  0  0  0 
 12 17  1  0  0  0  0 
 17 18  1  0  0  0  0 
 18 19  1  0  0  0  0 
 19 20  2  0  0  0  0 
 11 20  1  0  0  0  0 
 20 21  1  0  0  0  0 
 21 22  2  0  0  0  0 
 22 23  1  0  0  0  0 
 23 24  2  0  0  0  0 
 19 24  1  0  0  0  0 
 22 25  1  0  0  0  0 
 25 26  1  0  0  0  0 
 25 27  1  0  0  0  0 
 25 28  1  0  0  0  0 
  7 29  1  0  0  0  0 
 29 30  1  0  0  0  0 
  4 30  1  0  0  0  0 
M  END
> <SMILES>
OCCN1CCN(CCCN2C3=CC=CC=C3SC3=C2C=C(C=C3)C(F)(F)F)CC1

$$$$

  CDK     06141809482D

 24 27  0  0  1  0  0  0  0  0999 V2000
    1.0573    1.0428    0.0000 H   0  0  0  0  0  0  0  0  0  0  0  0
    2.2700    0.1600    0.0000 C   0  0  2  0  0  0  0  0  0  0  0  0
    3.6900   -0.3000    0.0000 C   0  0  0  0  0  0  0  0  0  0  0  0
    4.5700    0.9100    0.0000 C   0  0  0  0  0  0  0  0  0  0  0  0
    3.6900    2.1200    0.0000 C   0  0  2  0  0  0  0  0  0  0  0  0
    4.1538    3.5465    0.0000 O   0  0  0  0  0  0  0  0  0  0  0  0
    2.2700    1.6600    0.0000 C   0  0  2  0  0  0  0  0  0  0  0  0
    2.4272    3.1517    0.0000 C   0  0  0  0  0  0  0  0  0  0  0  0
    0.9700    2.4100    0.0000 C   0  0  0  0  0  0  0  0  0  0  0  0
   -0.3300    1.6600    0.0000 C   0  0  0  0  0  0  0  0  0  0  0  0
   -0.3300    0.1600    0.0000 C   0  0  1  0  0  0  0  0  0  0  0  0
   -0.3307   -1.3400    0.0000 H   0  0  0  0  0  0  0  0  0  0  0  0
    0.9700   -0.5900    0.0000 C   0  0  1  0  0  0  0  0  0  0  0  0
    2.2689   -1.3402    0.0000 H   0  0  0  0  0  0  0  0  0  0  0  0
    0.9700   -2.0900    0.0000 C   0  0  0  0  0  0  0  0  0  0  0  0
   -0.3300   -2.8400    0.0000 C   0  0  0  0  0  0  0  0  0  0  0  0
   -1.6300   -2.0900    0.0000 C   0  0  0  0  0  0  0  0  0  0  0  0
   -2.9300   -2.8400    0.0000 C   0  0  0  0  0  0  0  0  0  0  0  0
   -4.2300   -2.0900    0.0000 C   0  0  0  0  0  0  0  0  0  0  0  0
   -5.5289   -2.8402    0.0000 O   0  0  0  0  0  0  0  0  0  0  0  0
   -4.2300   -0.5900    0.0000 C   0  0  0  0  0  0  0  0  0  0  0  0
   -2.9300    0.1600    0.0000 C   0  0  0  0  0  0  0  0  0  0  0  0
   -1.6300   -0.5900    0.0000 C   0  0  2  0  0  0  0  0  0  0  0  0
   -1.6300    0.9100    0.0000 C   0  0  0  0  0  0  0  0  0  0  0  0
  2  1  1  6  0  0  0 
  2  3  1  0  0  0  0 
  3  4  1  0  0  0  0 
  4  5  1  0  0  0  0 
  5  6  1  1  0  0  0 
  5  7  1  0  0  0  0 
  2  7  1  0  0  0  0 
  7  8  1  1  0  0  0 
  7  9  1  0  0  0  0 
  9 10  1  0  0  0  0 
 10 11  1  0  0  0  0 
 11 12  1  6  0  0  0 
 11 13  1  0  0  0  0 
  2 13  1  0  0  0  0 
 13 14  1  1  0  0  0 
 13 15  1  0  0  0  0 
 15 16  1  0  0  0  0 
 16 17  1  0  0  0  0 
 17 18  2  0  0  0  0 
 18 19  1  0  0  0  0 
 19 20  2  0  0  0  0 
 19 21  1  0  0  0  0 
 21 22  1  0  0  0  0 
 22 23  1  0  0  0  0 
 11 23  1  0  0  0  0 
 17 23  1  0  0  0  0 
 23 24  1  1  0  0  0 
M  END
> <SMILES>
[H][C@@]12CC[C@H](O)[C@@]1(C)CC[C@@]1([H])[C@@]2([H])CCC2=CC(=O)CC[C@]12C

$$$$

  CDK     06141809482D

 34 38  0  0  0  0  0  0  0  0999 V2000
   13.1298  -10.3771    0.0000 C   0  0  0  0  0  0  0  0  0  0  0  0
   11.6299  -10.3968    0.0000 O   0  0  0  0  0  0  0  0  0  0  0  0
   10.8629   -9.1078    0.0000 C   0  0  0  0  0  0  0  0  0  0  0  0
   11.6062   -7.7541    0.0000 C   0  0  0  0  0  0  0  0  0  0  0  0
   10.8500   -6.4878    0.0000 C   0  0  0  0  0  0  0  0  0  0  0  0
    9.3500   -6.4952    0.0000 C   0  0  0  0  0  0  0  0  0  0  0  0
    8.6000   -5.1962    0.0000 C   0  0  0  0  0  0  0  0  0  0  0  0
    7.1000   -5.1962    0.0000 C   0  0  0  0  0  0  0  0  0  0  0  0
    6.3500   -3.8971    0.0000 N   0  0  0  0  0  0  0  0  0  0  0  0
    4.8492   -3.8976    0.0000 C   0  0  0  0  0  0  0  0  0  0  0  0
    4.0992   -2.5986    0.0000 C   0  0  0  0  0  0  0  0  0  0  0  0
    4.8500   -1.2990    0.0000 C   0  0  0  0  0  0  0  0  0  0  0  0
    6.3508   -1.2986    0.0000 C   0  0  0  0  0  0  0  0  0  0  0  0
    7.1008   -2.5976    0.0000 C   0  0  0  0  0  0  0  0  0  0  0  0
    4.1000   -0.0000    0.0000 N   0  0  0  0  0  0  0  0  0  0  0  0
    2.6000    0.0000    0.0000 C   0  0  0  0  0  0  0  0  0  0  0  0
    1.7200   -1.2100    0.0000 N   0  0  0  0  0  0  0  0  0  0  0  0
    0.2900   -0.7500    0.0000 C   0  0  0  0  0  0  0  0  0  0  0  0
   -1.0100   -1.5000    0.0000 C   0  0  0  0  0  0  0  0  0  0  0  0
   -2.3100   -0.7500    0.0000 C   0  0  0  0  0  0  0  0  0  0  0  0
   -2.3100    0.7500    0.0000 C   0  0  0  0  0  0  0  0  0  0  0  0
   -1.0100    1.5000    0.0000 C   0  0  0  0  0  0  0  0  0  0  0  0
    0.2900    0.7500    0.0000 C   0  0  0  0  0  0  0  0  0  0  0  0
    1.7200    1.2100    0.0000 N   0  0  0  0  0  0  0  0  0  0  0  0
    2.1853    2.6360    0.0000 C   0  0  0  0  0  0  0  0  0  0  0  0
    1.1830    3.7520    0.0000 C   0  0  0  0  0  0  0  0  0  0  0  0
   -0.2847    3.4421    0.0000 C   0  0  0  0  0  0  0  0  0  0  0  0
   -1.2870    4.5592    0.0000 C   0  0  0  0  0  0  0  0  0  0  0  0
   -0.8217    5.9861    0.0000 C   0  0  0  0  0  0  0  0  0  0  0  0
   -1.8241    7.1020    0.0000 F   0  0  0  0  0  0  0  0  0  0  0  0
    0.6459    6.2959    0.0000 C   0  0  0  0  0  0  0  0  0  0  0  0
    1.6483    5.1788    0.0000 C   0  0  0  0  0  0  0  0  0  0  0  0
    8.6063   -7.7689    0.0000 C   0  0  0  0  0  0  0  0  0  0  0  0
    9.3629   -9.1152    0.0000 C   0  0  0  0  0  0  0  0  0  0  0  0
  1  2  1  0  0  0  0 
  2  3  1  0  0  0  0 
  3  4  2  0  0  0  0 
  4  5  1  0  0  0  0 
  5  6  2  0  0  0  0 
  6  7  1  0  0  0  0 
  7  8  1  0  0  0  0 
  8  9  1  0  0  0  0 
  9 10  1  0  0  0  0 
 10 11  1  0  0  0  0 
 11 12  1  0  0  0  0 
 12 13  1  0  0  0  0 
 13 14  1  0  0  0  0 
  9 14  1  0  0  0  0 
 12 15  1  0  0  0  0 
 15 16  1  0  0  0  0 
 16 17  2  0  0  0  0 
 17 18  1  0  0  0  0 
 18 19  2  0  0  0  0 
 19 20  1  0  0  0  0 
 20 21  2  0  0  0  0 
 21 22  1  0  0  0  0 
 22 23  2  0  0  0  0 
 18 23  1  0  0  0  0 
 23 24  1  0  0  0  0 
 16 24  1  0  0  0  0 
 24 25  1  0  0  0  0 
 25 26  1  0  0  0  0 
 26 27  2  0  0  0  0 
 27 28  1  0  0  0  0 
 28 29  2  0  0  0  0 
 29 30  1  0  0  0  0 
 29 31  1  0  0  0  0 
 31 32  2  0  0  0  0 
 26 32  1  0  0  0  0 
  6 33  1  0  0  0  0 
 33 34  2  0  0  0  0 
  3 34  1  0  0  0  0 
M  END
> <SMILES>
COC1=CC=C(CCN2CCC(CC2)NC2=NC3=CC=CC=C3N2CC2=CC=C(F)C=C2)C=C1

$$$$

  CDK     06141809482D

 31 33  0  0  1  0  0  0  0  0999 V2000
    0.0000    2.2500    0.0000 H   0  0  0  0  0  0  0  0  0  0  0  0
    0.0000    0.7500    0.0000 C   0  0  1  0  0  0  0  0  0  0  0  0
   -1.3000    1.5000    0.0000 C   0  0  2  0  0  0  0  0  0  0  0  0
   -2.6000    0.7500    0.0000 C   0  0  0  0  0  0  0  0  0  0  0  0
   -2.6000   -0.7500    0.0000 C   0  0  1  0  0  0  0  0  0  0  0  0
   -3.8989   -1.5002    0.0000 C   0  0  0  0  0  0  0  0  0  0  0  0
   -1.3000   -1.5000    0.0000 C   0  0  0  0  0  0  0  0  0  0  0  0
    0.0000   -0.7500    0.0000 C   0  0  0  0  0  0  0  0  0  0  0  0
    1.3000   -1.5000    0.0000 C   0  0  0  0  0  0  0  0  0  0  0  0
    2.6000   -0.7500    0.0000 C   0  0  0  0  0  0  0  0  0  0  0  0
    2.6000    0.7500    0.0000 C   0  0  2  0  0  0  0  0  0  0  0  0
    3.8989    1.5002    0.0000 C   0  0  0  0  0  0  0  0  0  0  0  0
    1.3000    1.5000    0.0000 C   0  0  2  0  0  0  0  0  0  0  0  0
    1.3000    3.0000    0.0000 C   0  0  0  0  0  0  0  0  0  0  0  0
    2.5990    3.7500    0.0000 C   0  0  0  0  0  0  0  0  0  0  0  0
    2.5990    5.2500    0.0000 C   0  0  2  0  0  0  0  0  0  0  0  0
    3.8980    6.0002    0.0000 C   0  0  0  0  0  0  0  0  0  0  0  0
    3.8972    7.5010    0.0000 C   0  0  1  0  0  0  0  0  0  0  0  0
    5.1962    8.2512    0.0000 O   0  0  0  0  0  0  0  0  0  0  0  0
    2.5976    8.2517    0.0000 C   0  0  0  0  0  0  0  0  0  0  0  0
    1.2987    7.5015    0.0000 C   0  0  0  0  0  0  0  0  0  0  0  0
   -0.0006    8.2510    0.0000 O   0  0  0  0  0  0  0  0  0  0  0  0
    1.2994    6.0006    0.0000 O   0  0  0  0  0  0  0  0  0  0  0  0
   -1.3000    3.0000    0.0000 O   0  0  0  0  0  0  0  0  0  0  0  0
   -2.5990    3.7500    0.0000 C   0  0  0  0  0  0  0  0  0  0  0  0
   -2.5990    5.2500    0.0000 O   0  0  0  0  0  0  0  0  0  0  0  0
   -3.8981    3.0000    0.0000 C   0  0  0  0  0  0  0  0  0  0  0  0
   -4.8623    1.8509    0.0000 C   0  0  0  0  0  0  0  0  0  0  0  0
   -2.9339    1.8509    0.0000 C   0  0  0  0  0  0  0  0  0  0  0  0
   -5.1971    3.7500    0.0000 C   0  0  0  0  0  0  0  0  0  0  0  0
   -6.4962    3.0000    0.0000 C   0  0  0  0  0  0  0  0  0  0  0  0
  2  1  1  1  0  0  0 
  2  3  1  0  0  0  0 
  3  4  1  0  0  0  0 
  4  5  1  0  0  0  0 
  5  6  1  6  0  0  0 
  5  7  1  0  0  0  0 
  7  8  2  0  0  0  0 
  2  8  1  0  0  0  0 
  8  9  1  0  0  0  0 
  9 10  2  0  0  0  0 
 10 11  1  0  0  0  0 
 11 12  1  1  0  0  0 
 11 13  1  0  0  0  0 
  2 13  1  0  0  0  0 
 13 14  1  1  0  0  0 
 14 15  1  0  0  0  0 
 16 15  1  1  0  0  0 
 16 17  1  0  0  0  0 
 17 18  1  0  0  0  0 
 18 19  1  6  0  0  0 
 18 20  1  0  0  0  0 
 20 21  1  0  0  0  0 
 21 22  2  0  0  0  0 
 21 23  1  0  0  0  0 
 16 23  1  0  0  0  0 
  3 24  1  6  0  0  0 
 24 25  1  0  0  0  0 
 25 26  2  0  0  0  0 
 25 27  1  0  0  0  0 
 27 28  1  0  0  0  0 
 27 29  1  0  0  0  0 
 27 30  1  0  0  0  0 
 30 31  1  0  0  0  0 
M  END
> <SMILES>
[H][C@]12[C@H](C[C@@H](C)C=C1C=C[C@H](C)[C@@H]2CC[C@@H]1C[C@@H](O)CC(=O)O1)OC(=O)C(C)(C)CC

$$$$

  CDK     06141809482D

 22 24  0  0  0  0  0  0  0  0999 V2000
    7.1000   -2.5981    0.0000 C   0  0  0  0  0  0  0  0  0  0  0  0
    6.3500   -1.2990    0.0000 O   0  0  0  0  0  0  0  0  0  0  0  0
    4.8500   -1.2990    0.0000 C   0  0  0  0  0  0  0  0  0  0  0  0
    4.1000   -2.5981    0.0000 O   0  0  0  0  0  0  0  0  0  0  0  0
    4.1000   -0.0000    0.0000 N   0  0  0  0  0  0  0  0  0  0  0  0
    2.6000    0.0000    0.0000 C   0  0  0  0  0  0  0  0  0  0  0  0
    1.7200   -1.2100    0.0000 N   0  0  0  0  0  0  0  0  0  0  0  0
    0.2900   -0.7500    0.0000 C   0  0  0  0  0  0  0  0  0  0  0  0
    0.2900    0.7500    0.0000 C   0  0  0  0  0  0  0  0  0  0  0  0
    1.7200    1.2100    0.0000 N   0  0  0  0  0  0  0  0  0  0  0  0
   -1.0100    1.5000    0.0000 C   0  0  0  0  0  0  0  0  0  0  0  0
   -2.3100    0.7500    0.0000 C   0  0  0  0  0  0  0  0  0  0  0  0
   -2.3100   -0.7500    0.0000 C   0  0  0  0  0  0  0  0  0  0  0  0
   -1.0100   -1.5000    0.0000 C   0  0  0  0  0  0  0  0  0  0  0  0
   -3.6089    1.5002    0.0000 C   0  0  0  0  0  0  0  0  0  0  0  0
   -3.6087    3.0002    0.0000 O   0  0  0  0  0  0  0  0  0  0  0  0
   -4.9081    0.7504    0.0000 C   0  0  0  0  0  0  0  0  0  0  0  0
   -4.9078   -0.7504    0.0000 C   0  0  0  0  0  0  0  0  0  0  0  0
   -6.2070   -1.5002    0.0000 C   0  0  0  0  0  0  0  0  0  0  0  0
   -7.5064   -0.7492    0.0000 C   0  0  0  0  0  0  0  0  0  0  0  0
   -7.5066    0.7517    0.0000 C   0  0  0  0  0  0  0  0  0  0  0  0
   -6.2075    1.5015    0.0000 C   0  0  0  0  0  0  0  0  0  0  0  0
  1  2  1  0  0  0  0 
  2  3  1  0  0  0  0 
  3  4  2  0  0  0  0 
  3  5  1  0  0  0  0 
  5  6  1  0  0  0  0 
  6  7  2  0  0  0  0 
  7  8  1  0  0  0  0 
  8  9  2  0  0  0  0 
  9 10  1  0  0  0  0 
  6 10  1  0  0  0  0 
  9 11  1  0  0  0  0 
 11 12  2  0  0  0  0 
 12 13  1  0  0  0  0 
 13 14  2  0  0  0  0 
  8 14  1  0  0  0  0 
 12 15  1  0  0  0  0 
 15 16  2  0  0  0  0 
 15 17  1  0  0  0  0 
 17 18  2  0  0  0  0 
 18 19  1  0  0  0  0 
 19 20  2  0  0  0  0 
 20 21  1  0  0  0  0 
 21 22  2  0  0  0  0 
 17 22  1  0  0  0  0 
M  END
> <SMILES>
COC(=O)NC1=NC2=C(N1)C=C(C=C2)C(=O)C1=CC=CC=C1

$$$$

  CDK     06141809482D

 23 26  0  0  1  0  0  0  0  0999 V2000
    0.9638    1.0779    0.0000 H   0  0  0  0  0  0  0  0  0  0  0  0
    2.1800    0.2000    0.0000 C   0  0  2  0  0  0  0  0  0  0  0  0
    3.6100   -0.2600    0.0000 C   0  0  0  0  0  0  0  0  0  0  0  0
    4.4900    0.9500    0.0000 C   0  0  0  0  0  0  0  0  0  0  0  0
    3.6100    2.1700    0.0000 C   0  0  0  0  0  0  0  0  0  0  0  0
    4.0736    3.5966    0.0000 O   0  0  0  0  0  0  0  0  0  0  0  0
    2.1800    1.7000    0.0000 C   0  0  2  0  0  0  0  0  0  0  0  0
    2.3365    3.1918    0.0000 C   0  0  0  0  0  0  0  0  0  0  0  0
    0.8900    2.4500    0.0000 C   0  0  0  0  0  0  0  0  0  0  0  0
   -0.4100    1.7000    0.0000 C   0  0  0  0  0  0  0  0  0  0  0  0
   -0.4100    0.2000    0.0000 C   0  0  2  0  0  0  0  0  0  0  0  0
   -1.7089    0.9502    0.0000 H   0  0  0  0  0  0  0  0  0  0  0  0
   -1.7100   -0.5500    0.0000 C   0  0  0  0  0  0  0  0  0  0  0  0
   -1.7100   -2.0500    0.0000 C   0  0  0  0  0  0  0  0  0  0  0  0
   -0.4100   -2.8000    0.0000 C   0  0  0  0  0  0  0  0  0  0  0  0
    0.8900   -2.0500    0.0000 C   0  0  0  0  0  0  0  0  0  0  0  0
    0.8900   -0.5500    0.0000 C   0  0  1  0  0  0  0  0  0  0  0  0
    2.1902   -1.2980    0.0000 H   0  0  0  0  0  0  0  0  0  0  0  0
   -3.0100   -2.8000    0.0000 C   0  0  0  0  0  0  0  0  0  0  0  0
   -4.3100   -2.0500    0.0000 C   0  0  0  0  0  0  0  0  0  0  0  0
   -5.6089   -2.8002    0.0000 O   0  0  0  0  0  0  0  0  0  0  0  0
   -4.3100   -0.5500    0.0000 C   0  0  0  0  0  0  0  0  0  0  0  0
   -3.0100    0.2000    0.0000 C   0  0  0  0  0  0  0  0  0  0  0  0
  2  1  1  6  0  0  0 
  2  3  1  0  0  0  0 
  3  4  1  0  0  0  0 
  4  5  1  0  0  0  0 
  5  6  2  0  0  0  0 
  5  7  1  0  0  0  0 
  2  7  1  0  0  0  0 
  7  8  1  1  0  0  0 
  7  9  1  0  0  0  0 
  9 10  1  0  0  0  0 
 10 11  1  0  0  0  0 
 11 12  1  6  0  0  0 
 11 13  1  0  0  0  0 
 13 14  2  0  0  0  0 
 14 15  1  0  0  0  0 
 15 16  1  0  0  0  0 
 16 17  1  0  0  0  0 
  2 17  1  0  0  0  0 
 11 17  1  0  0  0  0 
 17 18  1  1  0  0  0 
 14 19  1  0  0  0  0 
 19 20  2  0  0  0  0 
 20 21  1  0  0  0  0 
 20 22  1  0  0  0  0 
 22 23  2  0  0  0  0 
 13 23  1  0  0  0  0 
M  END
> <SMILES>
[H][C@@]12CCC(=O)[C@@]1(C)CC[C@]1([H])C3=C(CC[C@@]21[H])C=C(O)C=C3

$$$$

  CDK     06141809482D

 26 29  0  0  0  0  0  0  0  0999 V2000
    8.6080   10.3949    0.0000 Cl  0  0  0  0  0  0  0  0  0  0  0  0
    9.3556    9.0945    0.0000 C   0  0  0  0  0  0  0  0  0  0  0  0
   10.8564    9.0915    0.0000 C   0  0  0  0  0  0  0  0  0  0  0  0
   11.5964    7.7957    0.0000 C   0  0  0  0  0  0  0  0  0  0  0  0
   10.8443    6.4979    0.0000 C   0  0  0  0  0  0  0  0  0  0  0  0
    9.3521    6.4959    0.0000 C   0  0  0  0  0  0  0  0  0  0  0  0
    8.6034    7.7967    0.0000 C   0  0  0  0  0  0  0  0  0  0  0  0
    8.6021    5.1969    0.0000 N   0  0  0  0  0  0  0  0  0  0  0  0
    7.1012    5.1966    0.0000 C   0  0  0  0  0  0  0  0  0  0  0  0
    6.3502    3.8972    0.0000 C   0  0  0  0  0  0  0  0  0  0  0  0
    7.1000    2.5981    0.0000 N   0  0  0  0  0  0  0  0  0  0  0  0
    6.3500    1.2990    0.0000 C   0  0  0  0  0  0  0  0  0  0  0  0
    4.8500    1.2990    0.0000 C   0  0  0  0  0  0  0  0  0  0  0  0
    4.1000   -0.0000    0.0000 C   0  0  0  0  0  0  0  0  0  0  0  0
    2.6000    0.0000    0.0000 N   0  0  0  0  0  0  0  0  0  0  0  0
    1.7200    1.2100    0.0000 N   0  0  0  0  0  0  0  0  0  0  0  0
    0.2900    0.7500    0.0000 C   0  0  0  0  0  0  0  0  0  0  0  0
   -1.0100    1.5000    0.0000 C   0  0  0  0  0  0  0  0  0  0  0  0
   -2.3100    0.7500    0.0000 C   0  0  0  0  0  0  0  0  0  0  0  0
   -2.3100   -0.7500    0.0000 C   0  0  0  0  0  0  0  0  0  0  0  0
   -1.0100   -1.5000    0.0000 C   0  0  0  0  0  0  0  0  0  0  0  0
    0.2900   -0.7500    0.0000 N   0  0  0  0  0  0  0  0  0  0  0  0
    1.7200   -1.2100    0.0000 C   0  0  0  0  0  0  0  0  0  0  0  0
    2.1853   -2.6360    0.0000 O   0  0  0  0  0  0  0  0  0  0  0  0
    8.6008    2.5983    0.0000 C   0  0  0  0  0  0  0  0  0  0  0  0
    9.3519    3.8977    0.0000 C   0  0  0  0  0  0  0  0  0  0  0  0
  1  2  1  0  0  0  0 
  2  3  2  0  0  0  0 
  3  4  1  0  0  0  0 
  4  5  2  0  0  0  0 
  5  6  1  0  0  0  0 
  6  7  2  0  0  0  0 
  2  7  1  0  0  0  0 
  6  8  1  0  0  0  0 
  8  9  1  0  0  0  0 
  9 10  1  0  0  0  0 
 10 11  1  0  0  0  0 
 11 12  1  0  0  0  0 
 12 13  1  0  0  0  0 
 13 14  1  0  0  0  0 
 14 15  1  0  0  0  0 
 15 16  1  0  0  0  0 
 16 17  2  0  0  0  0 
 17 18  1  0  0  0  0 
 18 19  2  0  0  0  0 
 19 20  1  0  0  0  0 
 20 21  2  0  0  0  0 
 21 22  1  0  0  0  0 
 17 22  1  0  0  0  0 
 22 23  1  0  0  0  0 
 15 23  1  0  0  0  0 
 23 24  2  0  0  0  0 
 11 25  1  0  0  0  0 
 25 26  1  0  0  0  0 
  8 26  1  0  0  0  0 
M  END
> <SMILES>
ClC1=CC=CC(=C1)N1CCN(CCCN2N=C3C=CC=CN3C2=O)CC1

$$$$

  CDK     06141809482D

 20 21  0  0  0  0  0  0  0  0999 V2000
   -7.3661   -0.3472    0.0000 C   0  0  0  0  0  0  0  0  0  0  0  0
   -6.0704   -1.1029    0.0000 N   0  0  0  0  0  0  0  0  0  0  0  0
   -4.7681   -0.3586    0.0000 S   0  0  0  0  0  0  0  0  0  0  0  0
   -3.7988    0.7862    0.0000 O   0  0  0  0  0  0  0  0  0  0  0  0
   -5.7272    0.7947    0.0000 O   0  0  0  0  0  0  0  0  0  0  0  0
   -3.4723   -1.1143    0.0000 C   0  0  0  0  0  0  0  0  0  0  0  0
   -2.1700   -0.3700    0.0000 C   0  0  0  0  0  0  0  0  0  0  0  0
   -0.8600   -1.1300    0.0000 C   0  0  0  0  0  0  0  0  0  0  0  0
    0.4300   -0.3700    0.0000 C   0  0  0  0  0  0  0  0  0  0  0  0
    0.4400    1.1400    0.0000 C   0  0  0  0  0  0  0  0  0  0  0  0
    1.8600    1.5900    0.0000 N   0  0  0  0  0  0  0  0  0  0  0  0
    2.7400    0.3800    0.0000 C   0  0  0  0  0  0  0  0  0  0  0  0
    1.8600   -0.8300    0.0000 C   0  0  0  0  0  0  0  0  0  0  0  0
    2.3253   -2.2560    0.0000 C   0  0  0  0  0  0  0  0  0  0  0  0
    3.7929   -2.5661    0.0000 C   0  0  0  0  0  0  0  0  0  0  0  0
    4.2582   -3.9921    0.0000 N   0  0  0  0  0  0  0  0  0  0  0  0
    5.7258   -4.3022    0.0000 C   0  0  0  0  0  0  0  0  0  0  0  0
    3.2558   -5.1080    0.0000 C   0  0  0  0  0  0  0  0  0  0  0  0
   -0.8700    1.8800    0.0000 C   0  0  0  0  0  0  0  0  0  0  0  0
   -2.1600    1.1300    0.0000 C   0  0  0  0  0  0  0  0  0  0  0  0
  1  2  1  0  0  0  0 
  2  3  1  0  0  0  0 
  3  4  2  0  0  0  0 
  3  5  2  0  0  0  0 
  3  6  1  0  0  0  0 
  6  7  1  0  0  0  0 
  7  8  2  0  0  0  0 
  8  9  1  0  0  0  0 
  9 10  2  0  0  0  0 
 10 11  1  0  0  0  0 
 11 12  1  0  0  0  0 
 12 13  2  0  0  0  0 
  9 13  1  0  0  0  0 
 13 14  1  0  0  0  0 
 14 15  1  0  0  0  0 
 15 16  1  0  0  0  0 
 16 17  1  0  0  0  0 
 16 18  1  0  0  0  0 
 10 19  1  0  0  0  0 
 19 20  2  0  0  0  0 
  7 20  1  0  0  0  0 
M  END
> <SMILES>
CNS(=O)(=O)CC1=CC2=C(NC=C2CCN(C)C)C=C1

$$$$

  CDK     06141809482D

 17 17  0  0  0  0  0  0  0  0999 V2000
  -10.3931    1.5015    0.0000 C   0  0  0  0  0  0  0  0  0  0  0  0
   -9.0942    0.7512    0.0000 C   0  0  0  0  0  0  0  0  0  0  0  0
   -7.7951    1.5010    0.0000 C   0  0  0  0  0  0  0  0  0  0  0  0
   -6.4962    0.7508    0.0000 N   0  0  0  0  0  0  0  0  0  0  0  0
   -5.1970    1.5006    0.0000 C   0  0  0  0  0  0  0  0  0  0  0  0
   -5.1968    3.0006    0.0000 O   0  0  0  0  0  0  0  0  0  0  0  0
   -3.8981    0.7504    0.0000 N   0  0  0  0  0  0  0  0  0  0  0  0
   -2.5989    1.5002    0.0000 S   0  0  0  0  0  0  0  0  0  0  0  0
   -1.6346    2.6491    0.0000 O   0  0  0  0  0  0  0  0  0  0  0  0
   -3.5629    2.6494    0.0000 O   0  0  0  0  0  0  0  0  0  0  0  0
   -1.3000    0.7500    0.0000 C   0  0  0  0  0  0  0  0  0  0  0  0
    0.0000    1.5000    0.0000 C   0  0  0  0  0  0  0  0  0  0  0  0
    1.3000    0.7500    0.0000 C   0  0  0  0  0  0  0  0  0  0  0  0
    1.3000   -0.7500    0.0000 C   0  0  0  0  0  0  0  0  0  0  0  0
    2.5989   -1.5002    0.0000 Cl  0  0  0  0  0  0  0  0  0  0  0  0
    0.0000   -1.5000    0.0000 C   0  0  0  0  0  0  0  0  0  0  0  0
   -1.3000   -0.7500    0.0000 C   0  0  0  0  0  0  0  0  0  0  0  0
  1  2  1  0  0  0  0 
  2  3  1  0  0  0  0 
  3  4  1  0  0  0  0 
  4  5  1  0  0  0  0 
  5  6  2  0  0  0  0 
  5  7  1  0  0  0  0 
  7  8  1  0  0  0  0 
  8  9  2  0  0  0  0 
  8 10  2  0  0  0  0 
  8 11  1  0  0  0  0 
 11 12  2  0  0  0  0 
 12 13  1  0  0  0  0 
 13 14  2  0  0  0  0 
 14 15  1  0  0  0  0 
 14 16  1  0  0  0  0 
 16 17  2  0  0  0  0 
 11 17  1  0  0  0  0 
M  END
> <SMILES>
CCCNC(=O)NS(=O)(=O)C1=CC=C(Cl)C=C1

$$$$

  CDK     06141809482D

 31 33  0  0  0  0  0  0  0  0999 V2000
   -4.9081   -0.7504    0.0000 C   0  0  0  0  0  0  0  0  0  0  0  0
   -3.6089   -1.5002    0.0000 O   0  0  0  0  0  0  0  0  0  0  0  0
   -2.3100   -0.7500    0.0000 C   0  0  0  0  0  0  0  0  0  0  0  0
   -2.3100    0.7500    0.0000 C   0  0  0  0  0  0  0  0  0  0  0  0
   -3.6089    1.5002    0.0000 C   0  0  0  0  0  0  0  0  0  0  0  0
   -4.9081    0.7504    0.0000 C   0  0  0  0  0  0  0  0  0  0  0  0
   -6.2070    1.5006    0.0000 C   0  0  0  0  0  0  0  0  0  0  0  0
   -6.2068    3.0006    0.0000 C   0  0  0  0  0  0  0  0  0  0  0  0
   -7.5062    0.7508    0.0000 C   0  0  0  0  0  0  0  0  0  0  0  0
   -8.8051    1.5010    0.0000 C   0  0  0  0  0  0  0  0  0  0  0  0
  -10.1042    0.7512    0.0000 C   0  0  0  0  0  0  0  0  0  0  0  0
  -10.1045   -0.7488    0.0000 O   0  0  0  0  0  0  0  0  0  0  0  0
  -11.4031    1.5015    0.0000 O   0  0  0  0  0  0  0  0  0  0  0  0
  -12.7023    0.7517    0.0000 C   0  0  0  0  0  0  0  0  0  0  0  0
  -14.0012    1.5019    0.0000 C   0  0  0  0  0  0  0  0  0  0  0  0
  -15.3004    0.7521    0.0000 N   0  0  0  0  0  0  0  0  0  0  0  0
  -15.3009   -0.7479    0.0000 C   0  0  0  0  0  0  0  0  0  0  0  0
  -16.6011   -1.4975    0.0000 C   0  0  0  0  0  0  0  0  0  0  0  0
  -17.9009   -0.7471    0.0000 O   0  0  0  0  0  0  0  0  0  0  0  0
  -17.9004    0.7529    0.0000 C   0  0  0  0  0  0  0  0  0  0  0  0
  -16.6001    1.5025    0.0000 C   0  0  0  0  0  0  0  0  0  0  0  0
   -1.0100    1.5000    0.0000 C   0  0  0  0  0  0  0  0  0  0  0  0
   -1.0100    3.0000    0.0000 O   0  0  0  0  0  0  0  0  0  0  0  0
    0.2900    0.7500    0.0000 C   0  0  0  0  0  0  0  0  0  0  0  0
    1.7200    1.2100    0.0000 C   0  0  0  0  0  0  0  0  0  0  0  0
    2.1853    2.6360    0.0000 O   0  0  0  0  0  0  0  0  0  0  0  0
    2.6000    0.0000    0.0000 O   0  0  0  0  0  0  0  0  0  0  0  0
    1.7200   -1.2100    0.0000 C   0  0  0  0  0  0  0  0  0  0  0  0
    0.2900   -0.7500    0.0000 C   0  0  0  0  0  0  0  0  0  0  0  0
   -1.0100   -1.5000    0.0000 C   0  0  0  0  0  0  0  0  0  0  0  0
   -1.0100   -3.0000    0.0000 C   0  0  0  0  0  0  0  0  0  0  0  0
  1  2  1  0  0  0  0 
  2  3  1  0  0  0  0 
  3  4  2  0  0  0  0 
  4  5  1  0  0  0  0 
  5  6  1  0  0  0  0 
  6  7  2  0  0  0  0 
  7  8  1  4  0  0  0 
  7  9  1  0  0  0  0 
  9 10  1  0  0  0  0 
 10 11  1  0  0  0  0 
 11 12  2  0  0  0  0 
 11 13  1  0  0  0  0 
 13 14  1  0  0  0  0 
 14 15  1  0  0  0  0 
 15 16  1  0  0  0  0 
 16 17  1  0  0  0  0 
 17 18  1  0  0  0  0 
 18 19  1  0  0  0  0 
 19 20  1  0  0  0  0 
 20 21  1  0  0  0  0 
 16 21  1  0  0  0  0 
  4 22  1  0  0  0  0 
 22 23  1  0  0  0  0 
 22 24  2  0  0  0  0 
 24 25  1  0  0  0  0 
 25 26  2  0  0  0  0 
 25 27  1  0  0  0  0 
 27 28  1  0  0  0  0 
 28 29  1  0  0  0  0 
 24 29  1  0  0  0  0 
 29 30  2  0  0  0  0 
  3 30  1  0  0  0  0 
 30 31  1  0  0  0  0 
M  END
> <SMILES>
COC1=C(CC=C(/C)CCC(=O)OCCN2CCOCC2)C(O)=C2C(=O)OCC2=C1C

$$$$

  CDK     06141809482D

 27 29  0  0  0  0  0  0  0  0999 V2000
   -2.0903   -8.1172    0.0000 C   0  0  0  0  0  0  0  0  0  0  0  0
   -2.4235   -6.6547    0.0000 C   0  0  0  0  0  0  0  0  0  0  0  0
   -1.3235   -5.6349    0.0000 N   0  0  0  0  0  0  0  0  0  0  0  0
    0.1096   -6.0776    0.0000 C   0  0  0  0  0  0  0  0  0  0  0  0
    0.4429   -7.5401    0.0000 C   0  0  0  0  0  0  0  0  0  0  0  0
   -1.6568   -4.1724    0.0000 C   0  0  0  0  0  0  0  0  0  0  0  0
   -0.5568   -3.1525    0.0000 C   0  0  0  0  0  0  0  0  0  0  0  0
   -0.8900   -1.6900    0.0000 N   0  0  0  0  0  0  0  0  0  0  0  0
    0.2800   -0.7500    0.0000 C   0  0  0  0  0  0  0  0  0  0  0  0
    0.2800    0.7500    0.0000 C   0  0  0  0  0  0  0  0  0  0  0  0
    1.5800    1.5000    0.0000 C   0  0  0  0  0  0  0  0  0  0  0  0
    2.8800    0.7500    0.0000 C   0  0  0  0  0  0  0  0  0  0  0  0
    4.1789    1.5002    0.0000 Cl  0  0  0  0  0  0  0  0  0  0  0  0
    2.8800   -0.7500    0.0000 C   0  0  0  0  0  0  0  0  0  0  0  0
    1.5800   -1.5000    0.0000 C   0  0  0  0  0  0  0  0  0  0  0  0
   -0.8900    1.6900    0.0000 C   0  0  0  0  0  0  0  0  0  0  0  0
   -2.3500    1.3500    0.0000 N   0  0  0  0  0  0  0  0  0  0  0  0
   -3.0000    0.0000    0.0000 C   0  0  0  0  0  0  0  0  0  0  0  0
   -2.3500   -1.3500    0.0000 C   0  0  0  0  0  0  0  0  0  0  0  0
   -3.2879   -2.5207    0.0000 O   0  0  0  0  0  0  0  0  0  0  0  0
   -0.5568    3.1525    0.0000 C   0  0  0  0  0  0  0  0  0  0  0  0
    0.8683    3.5948    0.0000 C   0  0  0  0  0  0  0  0  0  0  0  0
    1.2040    5.0568    0.0000 C   0  0  0  0  0  0  0  0  0  0  0  0
    0.1145    6.0764    0.0000 C   0  0  0  0  0  0  0  0  0  0  0  0
   -1.3203    5.6364    0.0000 C   0  0  0  0  0  0  0  0  0  0  0  0
   -1.6560    4.1744    0.0000 C   0  0  0  0  0  0  0  0  0  0  0  0
   -3.0898    3.7339    0.0000 F   0  0  0  0  0  0  0  0  0  0  0  0
  1  2  1  0  0  0  0 
  2  3  1  0  0  0  0 
  3  4  1  0  0  0  0 
  4  5  1  0  0  0  0 
  3  6  1  0  0  0  0 
  6  7  1  0  0  0  0 
  7  8  1  0  0  0  0 
  8  9  1  0  0  0  0 
  9 10  2  0  0  0  0 
 10 11  1  0  0  0  0 
 11 12  2  0  0  0  0 
 12 13  1  0  0  0  0 
 12 14  1  0  0  0  0 
 14 15  2  0  0  0  0 
  9 15  1  0  0  0  0 
 10 16  1  0  0  0  0 
 16 17  2  0  0  0  0 
 17 18  1  0  0  0  0 
 18 19  1  0  0  0  0 
  8 19  1  0  0  0  0 
 19 20  2  0  0  0  0 
 16 21  1  0  0  0  0 
 21 22  2  0  0  0  0 
 22 23  1  0  0  0  0 
 23 24  2  0  0  0  0 
 24 25  1  0  0  0  0 
 25 26  2  0  0  0  0 
 21 26  1  0  0  0  0 
 26 27  1  0  0  0  0 
M  END
> <SMILES>
CCN(CC)CCN1C2=C(C=C(Cl)C=C2)C(=NCC1=O)C1=CC=CC=C1F

$$$$

  CDK     06141809482D

 45 52  0  0  1  0  0  0  0  0999 V2000
    0.1370    0.8290    0.0000 H   0  0  0  0  0  0  0  0  0  0  0  0
    0.7500   -0.5400    0.0000 C   0  0  2  0  0  0  0  0  0  0  0  0
    1.7500   -1.6600    0.0000 C   0  0  0  0  0  0  0  0  0  0  0  0
    3.1200   -1.0500    0.0000 C   0  0  0  0  0  0  0  0  0  0  0  0
    2.9700    0.4400    0.0000 C   0  0  0  0  0  0  0  0  0  0  0  0
    1.5000    0.7600    0.0000 N   0  0  0  0  0  0  0  0  0  0  0  0
    0.7500    2.0500    0.0000 C   0  0  0  0  0  0  0  0  0  0  0  0
    1.4980    3.3502    0.0000 O   0  0  0  0  0  0  0  0  0  0  0  0
   -0.7500    2.0500    0.0000 C   0  0  2  0  0  0  0  0  0  0  0  0
   -1.4980    3.3502    0.0000 C   0  0  0  0  0  0  0  0  0  0  0  0
   -0.7461    4.6481    0.0000 C   0  0  0  0  0  0  0  0  0  0  0  0
   -1.4949    5.9487    0.0000 C   0  0  0  0  0  0  0  0  0  0  0  0
   -0.7430    7.2466    0.0000 C   0  0  0  0  0  0  0  0  0  0  0  0
    0.7579    7.2439    0.0000 C   0  0  0  0  0  0  0  0  0  0  0  0
    1.5067    5.9432    0.0000 C   0  0  0  0  0  0  0  0  0  0  0  0
    0.7548    4.6453    0.0000 C   0  0  0  0  0  0  0  0  0  0  0  0
   -1.5000    0.7600    0.0000 N   0  0  0  0  0  0  0  0  0  0  0  0
   -2.9700    0.4400    0.0000 C   0  0  0  0  0  0  0  0  0  0  0  0
   -4.0894    1.4385    0.0000 O   0  0  0  0  0  0  0  0  0  0  0  0
   -3.1200   -1.0500    0.0000 C   0  0  2  0  0  0  0  0  0  0  0  0
   -4.5881   -0.7424    0.0000 C   0  0  0  0  0  0  0  0  0  0  0  0
   -3.5815   -2.4773    0.0000 N   0  0  0  0  0  0  0  0  0  0  0  0
   -5.0482   -2.7912    0.0000 C   0  0  0  0  0  0  0  0  0  0  0  0
   -6.0535   -1.6780    0.0000 O   0  0  0  0  0  0  0  0  0  0  0  0
   -5.5097   -4.2185    0.0000 C   0  0  1  0  0  0  0  0  0  0  0  0
   -4.5022   -5.3242    0.0000 C   0  0  0  0  0  0  0  0  0  0  0  0
   -4.9661   -6.7507    0.0000 N   0  0  0  0  0  0  0  0  0  0  0  0
   -3.9596   -7.8629    0.0000 C   0  0  0  0  0  0  0  0  0  0  0  0
   -6.4374   -7.0715    0.0000 C   0  0  2  0  0  0  0  0  0  0  0  0
   -5.4309   -8.1837    0.0000 H   0  0  0  0  0  0  0  0  0  0  0  0
   -6.9012   -8.4980    0.0000 C   0  0  0  0  0  0  0  0  0  0  0  0
   -8.3568   -8.8028    0.0000 C   0  0  0  0  0  0  0  0  0  0  0  0
   -8.8206  -10.2293    0.0000 C   0  0  0  0  0  0  0  0  0  0  0  0
  -11.2932   -9.4253    0.0000 N   0  0  0  0  0  0  0  0  0  0  0  0
  -10.8294   -7.9988    0.0000 C   0  0  0  0  0  0  0  0  0  0  0  0
  -11.8368   -6.8931    0.0000 C   0  0  0  0  0  0  0  0  0  0  0  0
  -11.3730   -5.4666    0.0000 C   0  0  0  0  0  0  0  0  0  0  0  0
   -9.9017   -5.1458    0.0000 C   0  0  0  0  0  0  0  0  0  0  0  0
   -8.9004   -6.2706    0.0000 C   0  0  0  0  0  0  0  0  0  0  0  0
   -9.3643   -7.6971    0.0000 C   0  0  0  0  0  0  0  0  0  0  0  0
   -7.4291   -5.9498    0.0000 C   0  0  0  0  0  0  0  0  0  0  0  0
   -6.9653   -4.5233    0.0000 C   0  0  0  0  0  0  0  0  0  0  0  0
   -1.7500   -1.6600    0.0000 O   0  0  0  0  0  0  0  0  0  0  0  0
   -0.7500   -0.5400    0.0000 C   0  0  1  0  0  0  0  0  0  0  0  0
   -0.1370   -1.9090    0.0000 O   0  0  0  0  0  0  0  0  0  0  0  0
  2  1  1  6  0  0  0 
  2  3  1  0  0  0  0 
  3  4  1  0  0  0  0 
  4  5  1  0  0  0  0 
  5  6  1  0  0  0  0 
  2  6  1  0  0  0  0 
  6  7  1  0  0  0  0 
  7  8  2  0  0  0  0 
  7  9  1  0  0  0  0 
  9 10  1  1  0  0  0 
 10 11  1  0  0  0  0 
 11 12  2  0  0  0  0 
 12 13  1  0  0  0  0 
 13 14  2  0  0  0  0 
 14 15  1  0  0  0  0 
 15 16  2  0  0  0  0 
 11 16  1  0  0  0  0 
  9 17  1  0  0  0  0 
 17 18  1  0  0  0  0 
 18 19  2  0  0  0  0 
 18 20  1  0  0  0  0 
 20 21  1  6  0  0  0 
 20 22  1  1  0  0  0 
 22 23  1  0  0  0  0 
 23 24  2  0  0  0  0 
 25 23  1  1  0  0  0 
 25 26  1  0  0  0  0 
 26 27  1  0  0  0  0 
 27 28  1  0  0  0  0 
 27 29  1  0  0  0  0 
 29 30  1  1  0  0  0 
 29 31  1  0  0  0  0 
 31 32  1  0  0  0  0 
 32 33  2  0  0  0  0 
 33 34  1  0  0  0  0 
 34 35  1  0  0  0  0 
 35 36  2  0  0  0  0 
 36 37  1  0  0  0  0 
 37 38  2  0  0  0  0 
 38 39  1  0  0  0  0 
 39 40  2  0  0  0  0 
 32 40  1  0  0  0  0 
 35 40  1  0  0  0  0 
 39 41  1  0  0  0  0 
 29 41  1  0  0  0  0 
 41 42  2  0  0  0  0 
 25 42  1  0  0  0  0 
 20 43  1  0  0  0  0 
 43 44  1  0  0  0  0 
  2 44  1  0  0  0  0 
 17 44  1  0  0  0  0 
 44 45  1  1  0  0  0 
M  END
> <SMILES>
[H][C@@]12CCCN1C(=O)[C@H](CC1=CC=CC=C1)N1C(=O)[C@](C)(NC(=O)[C@H]3CN(C)[C@]4([H])CC5=CNC6=CC=CC(=C56)C4=C3)O[C@@]21O

$$$$

  CDK     06141809482D

 27 32  0  0  1  0  0  0  0  0999 V2000
   -4.6578   -2.3936    0.0000 H   0  0  0  0  0  0  0  0  0  0  0  0
   -3.2149   -1.9838    0.0000 C   0  0  2  0  0  0  0  0  0  0  0  0
   -4.1849   -0.4138    0.0000 O   0  0  0  0  0  0  0  0  0  0  0  0
   -3.2149    1.0162    0.0000 C   0  0  0  0  0  0  0  0  0  0  0  0
   -3.2149    2.5062    0.0000 C   0  0  0  0  0  0  0  0  0  0  0  0
   -4.5150    3.2542    0.0000 O   0  0  0  0  0  0  0  0  0  0  0  0
   -1.9249    3.2562    0.0000 C   0  0  0  0  0  0  0  0  0  0  0  0
   -0.6249    2.5062    0.0000 C   0  0  0  0  0  0  0  0  0  0  0  0
   -0.6249    1.0162    0.0000 C   0  0  0  0  0  0  0  0  0  0  0  0
   -1.9249    0.2562    0.0000 C   0  0  0  0  0  0  0  0  0  0  0  0
   -1.9249   -1.2438    0.0000 C   0  0  1  0  0  0  0  0  0  0  0  0
   -0.6249   -0.4938    0.0000 C   0  0  0  0  0  0  0  0  0  0  0  0
    2.0051   -0.4938    0.0000 C   0  0  0  0  0  0  0  0  0  0  0  0
    1.9751   -1.9838    0.0000 N   0  0  0  0  0  0  0  0  0  0  0  0
    2.5665   -3.3623    0.0000 C   0  0  0  0  0  0  0  0  0  0  0  0
    4.0560   -3.5394    0.0000 C   0  0  0  0  0  0  0  0  0  0  0  0
    5.4355   -2.9481    0.0000 C   0  0  0  0  0  0  0  0  0  0  0  0
    5.2584   -4.4376    0.0000 C   0  0  0  0  0  0  0  0  0  0  0  0
    0.6751   -1.2438    0.0000 C   0  0  2  0  0  0  0  0  0  0  0  0
    3.2167    0.2340    0.0000 H   0  0  0  0  0  0  0  0  0  0  0  0
    0.6751    0.2562    0.0000 C   0  0  0  0  0  0  0  0  0  0  0  0
   -0.6249   -1.9838    0.0000 C   0  0  1  0  0  0  0  0  0  0  0  0
    0.6719   -2.7378    0.0000 O   0  0  0  0  0  0  0  0  0  0  0  0
   -0.6249   -3.4938    0.0000 C   0  0  0  0  0  0  0  0  0  0  0  0
   -1.9249   -4.2438    0.0000 C   0  0  0  0  0  0  0  0  0  0  0  0
   -3.2149   -3.4938    0.0000 C   0  0  0  0  0  0  0  0  0  0  0  0
   -4.5150   -4.2418    0.0000 O   0  0  0  0  0  0  0  0  0  0  0  0
  2  1  1  1  0  0  0 
  2  3  1  0  0  0  0 
  3  4  1  0  0  0  0 
  4  5  2  0  0  0  0 
  5  6  1  0  0  0  0 
  5  7  1  0  0  0  0 
  7  8  2  0  0  0  0 
  8  9  1  0  0  0  0 
  9 10  2  0  0  0  0 
  4 10  1  0  0  0  0 
 11 10  1  6  0  0  0 
  2 11  1  0  0  0  0 
 11 12  1  1  0  0  0 
 12 13  1  0  0  0  0 
 13 14  1  0  0  0  0 
 14 15  1  0  0  0  0 
 15 16  1  0  0  0  0 
 16 17  1  0  0  0  0 
 17 18  1  0  0  0  0 
 16 18  1  0  0  0  0 
 14 19  1  0  0  0  0 
 19 20  1  6  0  0  0 
 19 21  1  0  0  0  0 
  9 21  1  0  0  0  0 
 19 22  1  0  0  0  0 
 11 22  1  0  0  0  0 
 22 23  1  1  0  0  0 
 22 24  1  0  0  0  0 
 24 25  1  0  0  0  0 
 25 26  1  0  0  0  0 
  2 26  1  0  0  0  0 
 26 27  2  0  0  0  0 
M  END
> <SMILES>
[H][C@@]12OC3=C(O)C=CC4=C3[C@@]11CCN(CC3CC3)[C@]([H])(C4)[C@]1(O)CCC2=O

$$$$

  CDK     06141809482D

 15 16  0  0  1  0  0  0  0  0999 V2000
    5.4015   -4.4058    0.0000 N   0  0  0  0  0  0  0  0  0  0  0  0
    4.0987   -3.6622    0.0000 C   0  0  0  0  0  0  0  0  0  0  0  0
    2.7892   -4.4304    0.0000 N   0  0  0  0  0  0  0  0  0  0  0  0
    1.4902   -3.6804    0.0000 C   0  0  0  0  0  0  0  0  0  0  0  0
    0.1923   -4.4323    0.0000 O   0  0  0  0  0  0  0  0  0  0  0  0
    1.4857   -2.1882    0.0000 N   0  0  0  0  0  0  0  0  0  0  0  0
    2.7692   -1.4050    0.0000 C   0  0  0  0  0  0  0  0  0  0  0  0
    4.0942   -2.1700    0.0000 C   0  0  0  0  0  0  0  0  0  0  0  0
    0.1765   -1.4560    0.0000 C   0  0  2  0  0  0  0  0  0  0  0  0
   -0.0006    0.0335    0.0000 C   0  0  0  0  0  0  0  0  0  0  0  0
   -1.4720    0.3253    0.0000 S   0  0  0  0  0  0  0  0  0  0  0  0
   -2.2042   -0.9838    0.0000 C   0  0  2  0  0  0  0  0  0  0  0  0
   -3.6937   -1.1609    0.0000 C   0  0  0  0  0  0  0  0  0  0  0  0
   -4.5918    0.0405    0.0000 O   0  0  0  0  0  0  0  0  0  0  0  0
   -1.1854   -2.0847    0.0000 O   0  0  0  0  0  0  0  0  0  0  0  0
  1  2  1  0  0  0  0 
  2  3  2  0  0  0  0 
  3  4  1  0  0  0  0 
  4  5  2  0  0  0  0 
  4  6  1  0  0  0  0 
  6  7  1  0  0  0  0 
  7  8  2  0  0  0  0 
  2  8  1  0  0  0  0 
  9  6  1  1  0  0  0 
  9 10  1  0  0  0  0 
 10 11  1  0  0  0  0 
 11 12  1  0  0  0  0 
 12 13  1  1  0  0  0 
 13 14  1  0  0  0  0 
 12 15  1  0  0  0  0 
  9 15  1  0  0  0  0 
M  END
> <SMILES>
NC1=NC(=O)N(C=C1)[C@@H]1CS[C@H](CO)O1

$$$$

  CDK     06141809482D

 24 27  0  0  1  0  0  0  0  0999 V2000
   -7.5106   -5.2506    0.0000 F   0  0  0  0  0  0  0  0  0  0  0  0
   -7.5099   -3.7506    0.0000 C   0  0  0  0  0  0  0  0  0  0  0  0
   -6.2099   -3.0006    0.0000 C   0  0  0  0  0  0  0  0  0  0  0  0
   -6.2084   -1.4998    0.0000 C   0  0  0  0  0  0  0  0  0  0  0  0
   -7.5070   -0.7490    0.0000 C   0  0  0  0  0  0  0  0  0  0  0  0
   -8.8070   -1.4990    0.0000 C   0  0  0  0  0  0  0  0  0  0  0  0
   -8.8084   -2.9998    0.0000 C   0  0  0  0  0  0  0  0  0  0  0  0
   -7.5063    0.7510    0.0000 C   0  0  2  0  0  0  0  0  0  0  0  0
   -8.8056    1.5023    0.0000 C   0  0  0  0  0  0  0  0  0  0  0  0
   -8.8056    3.0031    0.0000 C   0  0  0  0  0  0  0  0  0  0  0  0
   -7.5063    3.7527    0.0000 N   0  0  0  0  0  0  0  0  0  0  0  0
   -6.2070    3.0015    0.0000 C   0  0  0  0  0  0  0  0  0  0  0  0
   -6.2070    1.5006    0.0000 C   0  0  1  0  0  0  0  0  0  0  0  0
   -4.9081    0.7504    0.0000 C   0  0  0  0  0  0  0  0  0  0  0  0
   -3.6089    1.5002    0.0000 O   0  0  0  0  0  0  0  0  0  0  0  0
   -2.3100    0.7500    0.0000 C   0  0  0  0  0  0  0  0  0  0  0  0
   -1.0100    1.5000    0.0000 C   0  0  0  0  0  0  0  0  0  0  0  0
    0.2900    0.7500    0.0000 C   0  0  0  0  0  0  0  0  0  0  0  0
    0.2900   -0.7500    0.0000 C   0  0  0  0  0  0  0  0  0  0  0  0
    1.7200   -1.2100    0.0000 O   0  0  0  0  0  0  0  0  0  0  0  0
    2.6000   -0.0000    0.0000 C   0  0  0  0  0  0  0  0  0  0  0  0
    1.7200    1.2100    0.0000 O   0  0  0  0  0  0  0  0  0  0  0  0
   -1.0100   -1.5000    0.0000 C   0  0  0  0  0  0  0  0  0  0  0  0
   -2.3100   -0.7500    0.0000 C   0  0  0  0  0  0  0  0  0  0  0  0
  1  2  1  0  0  0  0 
  2  3  2  0  0  0  0 
  3  4  1  0  0  0  0 
  4  5  2  0  0  0  0 
  5  6  1  0  0  0  0 
  6  7  2  0  0  0  0 
  2  7  1  0  0  0  0 
  8  5  1  6  0  0  0 
  8  9  1  0  0  0  0 
  9 10  1  0  0  0  0 
 10 11  1  0  0  0  0 
 11 12  1  0  0  0  0 
 12 13  1  0  0  0  0 
  8 13  1  0  0  0  0 
 13 14  1  1  0  0  0 
 14 15  1  0  0  0  0 
 15 16  1  0  0  0  0 
 16 17  2  0  0  0  0 
 17 18  1  0  0  0  0 
 18 19  2  0  0  0  0 
 19 20  1  0  0  0  0 
 20 21  1  0  0  0  0 
 21 22  1  0  0  0  0 
 18 22  1  0  0  0  0 
 19 23  1  0  0  0  0 
 23 24  2  0  0  0  0 
 16 24  1  0  0  0  0 
M  END
> <SMILES>
FC1=CC=C(C=C1)[C@@H]1CCNC[C@H]1COC1=CC2=C(OCO2)C=C1

$$$$

  CDK     06141809482D

 26 29  0  0  1  0  0  0  0  0999 V2000
    0.9539    0.5058    0.0000 H   0  0  0  0  0  0  0  0  0  0  0  0
    2.1657   -0.3783    0.0000 C   0  0  2  0  0  0  0  0  0  0  0  0
    3.5957   -0.8383    0.0000 C   0  0  0  0  0  0  0  0  0  0  0  0
    4.4757    0.3717    0.0000 C   0  0  0  0  0  0  0  0  0  0  0  0
    3.5957    1.5917    0.0000 C   0  0  1  0  0  0  0  0  0  0  0  0
    4.8956    2.3402    0.0000 O   0  0  0  0  0  0  0  0  0  0  0  0
    2.7884    3.3996    0.0000 C   0  0  0  0  0  0  0  0  0  0  0  0
    2.1767    4.7693    0.0000 C   0  0  0  0  0  0  0  0  0  0  0  0
    2.1657    1.1217    0.0000 C   0  0  2  0  0  0  0  0  0  0  0  0
    2.3197    2.6138    0.0000 C   0  0  0  0  0  0  0  0  0  0  0  0
    0.8657    1.8717    0.0000 C   0  0  0  0  0  0  0  0  0  0  0  0
   -0.4343    1.1217    0.0000 C   0  0  0  0  0  0  0  0  0  0  0  0
   -0.4343   -0.3783    0.0000 C   0  0  2  0  0  0  0  0  0  0  0  0
   -0.4350   -1.8783    0.0000 H   0  0  0  0  0  0  0  0  0  0  0  0
   -1.7343   -1.1283    0.0000 C   0  0  1  0  0  0  0  0  0  0  0  0
   -1.7343    0.3717    0.0000 H   0  0  0  0  0  0  0  0  0  0  0  0
   -3.0343   -0.3783    0.0000 C   0  0  0  0  0  0  0  0  0  0  0  0
   -4.3343   -1.1283    0.0000 C   0  0  0  0  0  0  0  0  0  0  0  0
   -4.3343   -2.6283    0.0000 C   0  0  0  0  0  0  0  0  0  0  0  0
   -5.6332   -3.3785    0.0000 O   0  0  0  0  0  0  0  0  0  0  0  0
   -3.0343   -3.3783    0.0000 C   0  0  0  0  0  0  0  0  0  0  0  0
   -1.7343   -2.6283    0.0000 C   0  0  0  0  0  0  0  0  0  0  0  0
   -0.4343   -3.3783    0.0000 C   0  0  0  0  0  0  0  0  0  0  0  0
    0.8657   -2.6283    0.0000 C   0  0  0  0  0  0  0  0  0  0  0  0
    0.8657   -1.1283    0.0000 C   0  0  1  0  0  0  0  0  0  0  0  0
    2.1646   -1.8785    0.0000 H   0  0  0  0  0  0  0  0  0  0  0  0
  2  1  1  6  0  0  0 
  2  3  1  0  0  0  0 
  3  4  1  0  0  0  0 
  4  5  1  0  0  0  0 
  5  6  1  1  0  0  0 
  5  7  1  6  0  0  0 
  7  8  3  0  0  0  0 
  5  9  1  0  0  0  0 
  2  9  1  0  0  0  0 
  9 10  1  1  0  0  0 
  9 11  1  0  0  0  0 
 11 12  1  0  0  0  0 
 12 13  1  0  0  0  0 
 13 14  1  6  0  0  0 
 13 15  1  0  0  0  0 
 15 16  1  1  0  0  0 
 15 17  1  0  0  0  0 
 17 18  1  0  0  0  0 
 18 19  1  0  0  0  0 
 19 20  2  0  0  0  0 
 19 21  1  0  0  0  0 
 21 22  2  0  0  0  0 
 15 22  1  0  0  0  0 
 22 23  1  0  0  0  0 
 23 24  1  0  0  0  0 
 24 25  1  0  0  0  0 
  2 25  1  0  0  0  0 
 13 25  1  0  0  0  0 
 25 26  1  1  0  0  0 
M  END
> <SMILES>
[H][C@@]12CC[C@@](O)(C#C)[C@@]1(C)CC[C@]1([H])[C@@]3([H])CCC(=O)C=C3CC[C@@]21[H]

$$$$

  CDK     06141809482D

 22 24  0  0  0  0  0  0  0  0999 V2000
    2.5981   -2.6400    0.0000 C   0  0  0  0  0  0  0  0  0  0  0  0
    1.2990   -3.3900    0.0000 C   0  0  0  0  0  0  0  0  0  0  0  0
    1.2990   -4.8900    0.0000 C   0  0  0  0  0  0  0  0  0  0  0  0
    2.5981   -5.6400    0.0000 N   0  0  0  0  0  0  0  0  0  0  0  0
    2.5981   -7.1400    0.0000 C   0  0  0  0  0  0  0  0  0  0  0  0
    3.8971   -4.8900    0.0000 C   0  0  0  0  0  0  0  0  0  0  0  0
   -0.0000   -2.6400    0.0000 C   0  0  0  0  0  0  0  0  0  0  0  0
    0.0000   -1.1400    0.0000 N   0  0  0  0  0  0  0  0  0  0  0  0
    1.3500   -0.4900    0.0000 C   0  0  0  0  0  0  0  0  0  0  0  0
    2.4500   -1.5100    0.0000 C   0  0  0  0  0  0  0  0  0  0  0  0
    3.8800   -1.0600    0.0000 C   0  0  0  0  0  0  0  0  0  0  0  0
    4.2200    0.4000    0.0000 C   0  0  0  0  0  0  0  0  0  0  0  0
    3.1200    1.4200    0.0000 C   0  0  0  0  0  0  0  0  0  0  0  0
    1.6900    0.9800    0.0000 C   0  0  0  0  0  0  0  0  0  0  0  0
    0.7500    2.1500    0.0000 C   0  0  0  0  0  0  0  0  0  0  0  0
   -0.7500    2.1500    0.0000 C   0  0  0  0  0  0  0  0  0  0  0  0
   -1.6900    0.9800    0.0000 C   0  0  0  0  0  0  0  0  0  0  0  0
   -3.1200    1.4200    0.0000 C   0  0  0  0  0  0  0  0  0  0  0  0
   -4.2200    0.4000    0.0000 C   0  0  0  0  0  0  0  0  0  0  0  0
   -3.8800   -1.0600    0.0000 C   0  0  0  0  0  0  0  0  0  0  0  0
   -2.4500   -1.5100    0.0000 C   0  0  0  0  0  0  0  0  0  0  0  0
   -1.3500   -0.4900    0.0000 C   0  0  0  0  0  0  0  0  0  0  0  0
  1  2  1  0  0  0  0 
  2  3  1  0  0  0  0 
  3  4  1  0  0  0  0 
  4  5  1  0  0  0  0 
  4  6  1  0  0  0  0 
  2  7  1  0  0  0  0 
  7  8  1  0  0  0  0 
  8  9  1  0  0  0  0 
  9 10  2  0  0  0  0 
 10 11  1  0  0  0  0 
 11 12  2  0  0  0  0 
 12 13  1  0  0  0  0 
 13 14  2  0  0  0  0 
  9 14  1  0  0  0  0 
 14 15  1  0  0  0  0 
 15 16  1  0  0  0  0 
 16 17  1  0  0  0  0 
 17 18  2  0  0  0  0 
 18 19  1  0  0  0  0 
 19 20  2  0  0  0  0 
 20 21  1  0  0  0  0 
 21 22  2  0  0  0  0 
  8 22  1  0  0  0  0 
 17 22  1  0  0  0  0 
M  END
> <SMILES>
CC(CN(C)C)CN1C2=CC=CC=C2CCC2=CC=CC=C12

$$$$

  CDK     06141809482D

 12 11  0  0  1  0  0  0  0  0999 V2000
    0.0000    0.0000    0.0000 O   0  0  0  0  0  0  0  0  0  0  0  0
    1.2990   -0.7500    0.0000 C   0  0  0  0  0  0  0  0  0  0  0  0
    2.5981   -0.0000    0.0000 C   0  0  1  0  0  0  0  0  0  0  0  0
    2.5981    1.5000    0.0000 O   0  0  0  0  0  0  0  0  0  0  0  0
    3.8971   -0.7500    0.0000 C   0  0  1  0  0  0  0  0  0  0  0  0
    3.8971   -2.2500    0.0000 O   0  0  0  0  0  0  0  0  0  0  0  0
    5.1962   -0.0000    0.0000 C   0  0  2  0  0  0  0  0  0  0  0  0
    5.1962    1.5000    0.0000 O   0  0  0  0  0  0  0  0  0  0  0  0
    6.4952   -0.7500    0.0000 C   0  0  2  0  0  0  0  0  0  0  0  0
    6.4952   -2.2500    0.0000 O   0  0  0  0  0  0  0  0  0  0  0  0
    7.7942   -0.0000    0.0000 C   0  0  0  0  0  0  0  0  0  0  0  0
    9.0933   -0.7500    0.0000 O   0  0  0  0  0  0  0  0  0  0  0  0
  1  2  1  0  0  0  0 
  2  3  1  0  0  0  0 
  3  4  1  1  0  0  0 
  3  5  1  0  0  0  0 
  5  6  1  6  0  0  0 
  5  7  1  0  0  0  0 
  7  8  1  6  0  0  0 
  7  9  1  0  0  0  0 
  9 10  1  1  0  0  0 
  9 11  1  0  0  0  0 
 11 12  1  0  0  0  0 
M  END
> <SMILES>
OC[C@@H](O)[C@@H](O)[C@H](O)[C@H](O)CO

$$$$

  CDK     06141809482D

 22 25  0  0  1  0  0  0  0  0999 V2000
   -5.9159    3.0573    0.0000 C   0  0  0  0  0  0  0  0  0  0  0  0
   -3.0215    2.5415    0.0000 N   0  0  0  0  0  0  0  0  0  0  0  0
   -1.8597    1.2492    0.0000 C   0  0  1  0  0  0  0  0  0  0  0  0
   -0.7653    2.2737    0.0000 C   0  0  0  0  0  0  0  0  0  0  0  0
   -0.8774    3.7678    0.0000 C   0  0  1  0  0  0  0  0  0  0  0  0
   -2.1153    4.6119    0.0000 C   0  0  0  0  0  0  0  0  0  0  0  0
   -3.5447    4.1677    0.0000 C   0  0  2  0  0  0  0  0  0  0  0  0
   -4.0930    2.7773    0.0000 C   0  0  1  0  0  0  0  0  0  0  0  0
   -4.8430    1.4783    0.0000 O   0  0  0  0  0  0  0  0  0  0  0  0
   -3.3430    1.4783    0.0000 C   0  0  1  0  0  0  0  0  0  0  0  0
    0.4216    4.5178    0.0000 O   0  0  0  0  0  0  0  0  0  0  0  0
    1.7206    3.7678    0.0000 C   0  0  0  0  0  0  0  0  0  0  0  0
    1.7206    2.2678    0.0000 O   0  0  0  0  0  0  0  0  0  0  0  0
    3.0197    4.5178    0.0000 C   0  0  2  0  0  0  0  0  0  0  0  0
    4.3187    3.7678    0.0000 C   0  0  0  0  0  0  0  0  0  0  0  0
    5.6178    4.5178    0.0000 O   0  0  0  0  0  0  0  0  0  0  0  0
    3.0197    6.0178    0.0000 C   0  0  0  0  0  0  0  0  0  0  0  0
    1.7197    6.7678    0.0000 C   0  0  0  0  0  0  0  0  0  0  0  0
    1.7197    8.2678    0.0000 C   0  0  0  0  0  0  0  0  0  0  0  0
    3.0197    9.0178    0.0000 C   0  0  0  0  0  0  0  0  0  0  0  0
    4.3197    8.2678    0.0000 C   0  0  0  0  0  0  0  0  0  0  0  0
    4.3197    6.7678    0.0000 C   0  0  0  0  0  0  0  0  0  0  0  0
  1  2  1  0  0  0  0 
  3  2  1  6  0  0  0 
  3  4  1  0  0  0  0 
  4  5  1  0  0  0  0 
  5  6  1  0  0  0  0 
  6  7  1  0  0  0  0 
  7  2  1  6  0  0  0 
  7  8  1  0  0  0  0 
  8  9  1  6  0  0  0 
 10  9  1  6  0  0  0 
  3 10  1  0  0  0  0 
  8 10  1  0  0  0  0 
  5 11  1  1  0  0  0 
 11 12  1  0  0  0  0 
 12 13  2  0  0  0  0 
 12 14  1  0  0  0  0 
 14 15  1  1  0  0  0 
 15 16  1  0  0  0  0 
 14 17  1  0  0  0  0 
 17 18  2  0  0  0  0 
 18 19  1  0  0  0  0 
 19 20  2  0  0  0  0 
 20 21  1  0  0  0  0 
 21 22  2  0  0  0  0 
 17 22  1  0  0  0  0 
M  END
> <SMILES>
CN1[C@H]2C[C@@H](C[C@@H]1[C@H]1O[C@@H]21)OC(=O)[C@H](CO)C1=CC=CC=C1

$$$$

  CDK     06141809482D

 19 22  0  0  0  0  0  0  0  0999 V2000
    1.8698   -0.8457    0.0000 N   0  0  0  0  0  0  0  0  0  0  0  0
    0.3758   -0.7112    0.0000 C   0  0  0  0  0  0  0  0  0  0  0  0
   -0.6111   -1.8408    0.0000 N   0  0  0  0  0  0  0  0  0  0  0  0
   -1.9904   -1.2513    0.0000 C   0  0  0  0  0  0  0  0  0  0  0  0
   -1.8559    0.2427    0.0000 C   0  0  0  0  0  0  0  0  0  0  0  0
   -0.3935    0.5765    0.0000 N   0  0  0  0  0  0  0  0  0  0  0  0
    0.2573    1.9279    0.0000 C   0  0  0  0  0  0  0  0  0  0  0  0
    1.7531    1.8158    0.0000 C   0  0  0  0  0  0  0  0  0  0  0  0
    2.5981    3.0552    0.0000 C   0  0  0  0  0  0  0  0  0  0  0  0
    1.9473    4.4066    0.0000 C   0  0  0  0  0  0  0  0  0  0  0  0
    0.4514    4.5187    0.0000 C   0  0  0  0  0  0  0  0  0  0  0  0
   -0.3935    3.2794    0.0000 C   0  0  0  0  0  0  0  0  0  0  0  0
   -1.8559    3.6132    0.0000 C   0  0  0  0  0  0  0  0  0  0  0  0
   -3.0287    2.6779    0.0000 C   0  0  0  0  0  0  0  0  0  0  0  0
   -4.3277    3.4279    0.0000 C   0  0  0  0  0  0  0  0  0  0  0  0
   -5.6268    2.6779    0.0000 C   0  0  0  0  0  0  0  0  0  0  0  0
   -5.6268    1.1779    0.0000 C   0  0  0  0  0  0  0  0  0  0  0  0
   -4.3277    0.4279    0.0000 C   0  0  0  0  0  0  0  0  0  0  0  0
   -3.0287    1.1779    0.0000 C   0  0  0  0  0  0  0  0  0  0  0  0
  1  2  1  0  0  0  0 
  2  3  2  0  0  0  0 
  3  4  1  0  0  0  0 
  4  5  1  0  0  0  0 
  5  6  1  0  0  0  0 
  2  6  1  0  0  0  0 
  6  7  1  0  0  0  0 
  7  8  2  0  0  0  0 
  8  9  1  0  0  0  0 
  9 10  2  0  0  0  0 
 10 11  1  0  0  0  0 
 11 12  2  0  0  0  0 
  7 12  1  0  0  0  0 
 12 13  1  0  0  0  0 
 13 14  1  0  0  0  0 
 14 15  2  0  0  0  0 
 15 16  1  0  0  0  0 
 16 17  2  0  0  0  0 
 17 18  1  0  0  0  0 
 18 19  2  0  0  0  0 
  5 19  1  0  0  0  0 
 14 19  1  0  0  0  0 
M  END
> <SMILES>
NC1=NCC2N1C1=CC=CC=C1CC1=CC=CC=C21

$$$$

  CDK     06141809482D

 22 24  0  0  1  0  0  0  0  0999 V2000
   -2.6446    2.6491    0.0000 H   0  0  0  0  0  0  0  0  0  0  0  0
   -3.6089    1.5002    0.0000 C   0  0  2  0  0  0  0  0  0  0  0  0
   -2.3100    0.7500    0.0000 N   0  0  0  0  0  0  0  0  0  0  0  0
   -2.3100   -0.7500    0.0000 C   0  0  0  0  0  0  0  0  0  0  0  0
   -1.0100   -1.5000    0.0000 C   0  0  0  0  0  0  0  0  0  0  0  0
    0.2900   -0.7500    0.0000 C   0  0  0  0  0  0  0  0  0  0  0  0
    0.2900    0.7500    0.0000 C   0  0  0  0  0  0  0  0  0  0  0  0
   -1.0100    1.5000    0.0000 C   0  0  0  0  0  0  0  0  0  0  0  0
    1.7200    1.2100    0.0000 C   0  0  0  0  0  0  0  0  0  0  0  0
    2.6000    0.0000    0.0000 C   0  0  0  0  0  0  0  0  0  0  0  0
    1.7200   -1.2100    0.0000 S   0  0  0  0  0  0  0  0  0  0  0  0
   -4.9081    0.7504    0.0000 C   0  0  0  0  0  0  0  0  0  0  0  0
   -6.2070    1.5006    0.0000 O   0  0  0  0  0  0  0  0  0  0  0  0
   -4.9083   -0.7496    0.0000 O   0  0  0  0  0  0  0  0  0  0  0  0
   -6.2075   -1.4994    0.0000 C   0  0  0  0  0  0  0  0  0  0  0  0
   -4.5729    2.6494    0.0000 C   0  0  0  0  0  0  0  0  0  0  0  0
   -6.0546    2.3880    0.0000 C   0  0  0  0  0  0  0  0  0  0  0  0
   -7.0081    3.5459    0.0000 C   0  0  0  0  0  0  0  0  0  0  0  0
   -6.5017    4.9603    0.0000 C   0  0  0  0  0  0  0  0  0  0  0  0
   -5.0137    5.2141    0.0000 C   0  0  0  0  0  0  0  0  0  0  0  0
   -4.0602    4.0561    0.0000 C   0  0  0  0  0  0  0  0  0  0  0  0
   -2.5817    4.3094    0.0000 Cl  0  0  0  0  0  0  0  0  0  0  0  0
  2  1  1  1  0  0  0 
  2  3  1  6  0  0  0 
  3  4  1  0  0  0  0 
  4  5  1  0  0  0  0 
  5  6  1  0  0  0  0 
  6  7  2  0  0  0  0 
  7  8  1  0  0  0  0 
  3  8  1  0  0  0  0 
  7  9  1  0  0  0  0 
  9 10  2  0  0  0  0 
 10 11  1  0  0  0  0 
  6 11  1  0  0  0  0 
  2 12  1  0  0  0  0 
 12 13  2  0  0  0  0 
 12 14  1  0  0  0  0 
 14 15  1  0  0  0  0 
  2 16  1  0  0  0  0 
 16 17  2  0  0  0  0 
 17 18  1  0  0  0  0 
 18 19  2  0  0  0  0 
 19 20  1  0  0  0  0 
 20 21  2  0  0  0  0 
 16 21  1  0  0  0  0 
 21 22  1  0  0  0  0 
M  END
> <SMILES>
[H][C@@](N1CCC2=C(C1)C=CS2)(C(=O)OC)C1=CC=CC=C1Cl

$$$$

  CDK     06141809482D

 43 49  0  0  1  0  0  0  0  0999 V2000
   -3.3190    4.7100    0.0000 C   0  0  0  0  0  0  0  0  0  0  0  0
   -2.0200    3.9600    0.0000 C   0  0  0  0  0  0  0  0  0  0  0  0
   -2.0200    2.4600    0.0000 C   0  0  0  0  0  0  0  0  0  0  0  0
   -0.7200    1.7100    0.0000 C   0  0  0  0  0  0  0  0  0  0  0  0
    0.7100    2.1700    0.0000 C   0  0  0  0  0  0  0  0  0  0  0  0
    1.5900    0.9600    0.0000 N   0  0  0  0  0  0  0  0  0  0  0  0
    0.7100   -0.2600    0.0000 C   0  0  0  0  0  0  0  0  0  0  0  0
    1.3200   -1.6200    0.0000 C   0  0  0  0  0  0  0  0  0  0  0  0
    2.8100   -1.7800    0.0000 C   0  0  0  0  0  0  0  0  0  0  0  0
    3.6900   -0.5700    0.0000 C   0  0  0  0  0  0  0  0  0  0  0  0
    5.1800   -0.7300    0.0000 C   0  0  0  0  0  0  0  0  0  0  0  0
    5.7900   -2.1000    0.0000 O   0  0  0  0  0  0  0  0  0  0  0  0
    4.9100   -3.3100    0.0000 C   0  0  0  0  0  0  0  0  0  0  0  0
    5.5182   -4.6811    0.0000 O   0  0  0  0  0  0  0  0  0  0  0  0
    3.4200   -3.1500    0.0000 C   0  0  1  0  0  0  0  0  0  0  0  0
    1.9643   -3.5118    0.0000 O   0  0  0  0  0  0  0  0  0  0  0  0
    3.5224   -4.6465    0.0000 C   0  0  0  0  0  0  0  0  0  0  0  0
    4.8696   -5.3061    0.0000 C   0  0  0  0  0  0  0  0  0  0  0  0
    3.0800    0.8000    0.0000 C   0  0  0  0  0  0  0  0  0  0  0  0
    3.9630    2.0125    0.0000 O   0  0  0  0  0  0  0  0  0  0  0  0
   -0.7200    0.2100    0.0000 C   0  0  0  0  0  0  0  0  0  0  0  0
   -2.0200   -0.5400    0.0000 N   0  0  0  0  0  0  0  0  0  0  0  0
   -3.3200    0.2100    0.0000 C   0  0  0  0  0  0  0  0  0  0  0  0
   -3.3200    1.7100    0.0000 C   0  0  0  0  0  0  0  0  0  0  0  0
   -4.6200    2.4600    0.0000 C   0  0  0  0  0  0  0  0  0  0  0  0
   -5.9200    1.7100    0.0000 C   0  0  0  0  0  0  0  0  0  0  0  0
   -7.2189    2.4602    0.0000 O   0  0  0  0  0  0  0  0  0  0  0  0
   -8.5181    1.7104    0.0000 C   0  0  0  0  0  0  0  0  0  0  0  0
   -8.5183    0.2104    0.0000 O   0  0  0  0  0  0  0  0  0  0  0  0
   -9.8170    2.4606    0.0000 N   0  0  0  0  0  0  0  0  0  0  0  0
  -11.1166    1.7100    0.0000 C   0  0  0  0  0  0  0  0  0  0  0  0
  -12.4156    2.4602    0.0000 C   0  0  0  0  0  0  0  0  0  0  0  0
  -12.4148    3.9610    0.0000 C   0  0  0  0  0  0  0  0  0  0  0  0
  -11.1152    4.7117    0.0000 C   0  0  0  0  0  0  0  0  0  0  0  0
   -9.8163    3.9615    0.0000 C   0  0  0  0  0  0  0  0  0  0  0  0
  -13.7137    4.7112    0.0000 N   0  0  0  0  0  0  0  0  0  0  0  0
  -15.0134    3.9606    0.0000 C   0  0  0  0  0  0  0  0  0  0  0  0
  -16.3123    4.7108    0.0000 C   0  0  0  0  0  0  0  0  0  0  0  0
  -16.3116    6.2117    0.0000 C   0  0  0  0  0  0  0  0  0  0  0  0
  -15.0119    6.9623    0.0000 C   0  0  0  0  0  0  0  0  0  0  0  0
  -13.7130    6.2121    0.0000 C   0  0  0  0  0  0  0  0  0  0  0  0
   -5.9200    0.2100    0.0000 C   0  0  0  0  0  0  0  0  0  0  0  0
   -4.6200   -0.5400    0.0000 C   0  0  0  0  0  0  0  0  0  0  0  0
  1  2  1  0  0  0  0 
  2  3  1  0  0  0  0 
  3  4  2  0  0  0  0 
  4  5  1  0  0  0  0 
  5  6  1  0  0  0  0 
  6  7  1  0  0  0  0 
  7  8  2  0  0  0  0 
  8  9  1  0  0  0  0 
  9 10  2  0  0  0  0 
 10 11  1  0  0  0  0 
 11 12  1  0  0  0  0 
 12 13  1  0  0  0  0 
 13 14  2  0  0  0  0 
 13 15  1  0  0  0  0 
  9 15  1  0  0  0  0 
 15 16  1  1  0  0  0 
 15 17  1  6  0  0  0 
 17 18  1  0  0  0  0 
 10 19  1  0  0  0  0 
  6 19  1  0  0  0  0 
 19 20  2  0  0  0  0 
  7 21  1  0  0  0  0 
  4 21  1  0  0  0  0 
 21 22  2  0  0  0  0 
 22 23  1  0  0  0  0 
 23 24  2  0  0  0  0 
  3 24  1  0  0  0  0 
 24 25  1  0  0  0  0 
 25 26  2  0  0  0  0 
 26 27  1  0  0  0  0 
 27 28  1  0  0  0  0 
 28 29  2  0  0  0  0 
 28 30  1  0  0  0  0 
 30 31  1  0  0  0  0 
 31 32  1  0  0  0  0 
 32 33  1  0  0  0  0 
 33 34  1  0  0  0  0 
 34 35  1  0  0  0  0 
 30 35  1  0  0  0  0 
 33 36  1  0  0  0  0 
 36 37  1  0  0  0  0 
 37 38  1  0  0  0  0 
 38 39  1  0  0  0  0 
 39 40  1  0  0  0  0 
 40 41  1  0  0  0  0 
 36 41  1  0  0  0  0 
 26 42  1  0  0  0  0 
 42 43  2  0  0  0  0 
 23 43  1  0  0  0  0 
M  END
> <SMILES>
CCC1=C2CN3C(=CC4=C(COC(=O)[C@]4(O)CC)C3=O)C2=NC2=C1C=C(OC(=O)N1CCC(CC1)N1CCCCC1)C=C2

$$$$

  CDK     06141809482D

 23 26  0  0  1  0  0  0  0  0999 V2000
    0.9638    1.0779    0.0000 H   0  0  0  0  0  0  0  0  0  0  0  0
    2.1800    0.2000    0.0000 C   0  0  2  0  0  0  0  0  0  0  0  0
    3.6100   -0.2600    0.0000 C   0  0  0  0  0  0  0  0  0  0  0  0
    4.4900    0.9500    0.0000 C   0  0  0  0  0  0  0  0  0  0  0  0
    3.6100    2.1700    0.0000 C   0  0  2  0  0  0  0  0  0  0  0  0
    4.0736    3.5966    0.0000 O   0  0  0  0  0  0  0  0  0  0  0  0
    2.1800    1.7000    0.0000 C   0  0  2  0  0  0  0  0  0  0  0  0
    2.3365    3.1918    0.0000 C   0  0  0  0  0  0  0  0  0  0  0  0
    0.8900    2.4500    0.0000 C   0  0  0  0  0  0  0  0  0  0  0  0
   -0.4100    1.7000    0.0000 C   0  0  0  0  0  0  0  0  0  0  0  0
   -0.4100    0.2000    0.0000 C   0  0  2  0  0  0  0  0  0  0  0  0
   -1.7089    0.9502    0.0000 H   0  0  0  0  0  0  0  0  0  0  0  0
   -1.7100   -0.5500    0.0000 C   0  0  0  0  0  0  0  0  0  0  0  0
   -1.7100   -2.0500    0.0000 C   0  0  0  0  0  0  0  0  0  0  0  0
   -0.4100   -2.8000    0.0000 C   0  0  0  0  0  0  0  0  0  0  0  0
    0.8900   -2.0500    0.0000 C   0  0  0  0  0  0  0  0  0  0  0  0
    0.8900   -0.5500    0.0000 C   0  0  1  0  0  0  0  0  0  0  0  0
    2.1902   -1.2980    0.0000 H   0  0  0  0  0  0  0  0  0  0  0  0
   -3.0100   -2.8000    0.0000 C   0  0  0  0  0  0  0  0  0  0  0  0
   -4.3100   -2.0500    0.0000 C   0  0  0  0  0  0  0  0  0  0  0  0
   -5.6089   -2.8002    0.0000 O   0  0  0  0  0  0  0  0  0  0  0  0
   -4.3100   -0.5500    0.0000 C   0  0  0  0  0  0  0  0  0  0  0  0
   -3.0100    0.2000    0.0000 C   0  0  0  0  0  0  0  0  0  0  0  0
  2  1  1  6  0  0  0 
  2  3  1  0  0  0  0 
  3  4  1  0  0  0  0 
  4  5  1  0  0  0  0 
  5  6  1  1  0  0  0 
  5  7  1  0  0  0  0 
  2  7  1  0  0  0  0 
  7  8  1  1  0  0  0 
  7  9  1  0  0  0  0 
  9 10  1  0  0  0  0 
 10 11  1  0  0  0  0 
 11 12  1  6  0  0  0 
 11 13  1  0  0  0  0 
 13 14  2  0  0  0  0 
 14 15  1  0  0  0  0 
 15 16  1  0  0  0  0 
 16 17  1  0  0  0  0 
  2 17  1  0  0  0  0 
 11 17  1  0  0  0  0 
 17 18  1  1  0  0  0 
 14 19  1  0  0  0  0 
 19 20  2  0  0  0  0 
 20 21  1  0  0  0  0 
 20 22  1  0  0  0  0 
 22 23  2  0  0  0  0 
 13 23  1  0  0  0  0 
M  END
> <SMILES>
[H][C@@]12CC[C@H](O)[C@@]1(C)CC[C@]1([H])C3=C(CC[C@@]21[H])C=C(O)C=C3

$$$$

  CDK     06141809482D

 28 29  0  0  1  0  0  0  0  0999 V2000
    1.6563    1.7201    0.0000 H   0  0  0  0  0  0  0  0  0  0  0  0
    0.7700    0.5100    0.0000 C   0  0  1  0  0  0  0  0  0  0  0  0
    0.0300    1.8000    0.0000 C   0  0  0  0  0  0  0  0  0  0  0  0
   -1.4400    1.4900    0.0000 C   0  0  2  0  0  0  0  0  0  0  0  0
   -1.6100   -0.0100    0.0000 N   0  0  0  0  0  0  0  0  0  0  0  0
   -2.9075   -0.7627    0.0000 C   0  0  0  0  0  0  0  0  0  0  0  0
   -4.2081   -0.0153    0.0000 O   0  0  0  0  0  0  0  0  0  0  0  0
   -2.9044   -2.2627    0.0000 C   0  0  2  0  0  0  0  0  0  0  0  0
   -1.6039   -3.0100    0.0000 C   0  0  0  0  0  0  0  0  0  0  0  0
   -4.2019   -3.0153    0.0000 N   0  0  0  0  0  0  0  0  0  0  0  0
   -4.1989   -4.5153    0.0000 C   0  0  1  0  0  0  0  0  0  0  0  0
   -2.8983   -5.2626    0.0000 C   0  0  0  0  0  0  0  0  0  0  0  0
   -2.8952   -6.7626    0.0000 C   0  0  0  0  0  0  0  0  0  0  0  0
   -4.1927   -7.5153    0.0000 C   0  0  0  0  0  0  0  0  0  0  0  0
   -5.4964   -5.2680    0.0000 C   0  0  0  0  0  0  0  0  0  0  0  0
   -6.7969   -4.5206    0.0000 O   0  0  0  0  0  0  0  0  0  0  0  0
   -5.4933   -6.7680    0.0000 O   0  0  0  0  0  0  0  0  0  0  0  0
   -6.7908   -7.5206    0.0000 C   0  0  0  0  0  0  0  0  0  0  0  0
   -6.7877   -9.0206    0.0000 C   0  0  0  0  0  0  0  0  0  0  0  0
   -0.2400   -0.6000    0.0000 C   0  0  1  0  0  0  0  0  0  0  0  0
   -1.3468   -1.6124    0.0000 H   0  0  0  0  0  0  0  0  0  0  0  0
    0.2300   -2.0300    0.0000 C   0  0  0  0  0  0  0  0  0  0  0  0
    1.7000   -2.3500    0.0000 C   0  0  0  0  0  0  0  0  0  0  0  0
    2.6900   -1.2400    0.0000 C   0  0  0  0  0  0  0  0  0  0  0  0
    2.2400    0.1900    0.0000 C   0  0  0  0  0  0  0  0  0  0  0  0
   -2.5498    2.4991    0.0000 C   0  0  0  0  0  0  0  0  0  0  0  0
   -2.2308    3.9648    0.0000 O   0  0  0  0  0  0  0  0  0  0  0  0
   -3.9786    2.0425    0.0000 O   0  0  0  0  0  0  0  0  0  0  0  0
  2  1  1  1  0  0  0 
  2  3  1  0  0  0  0 
  3  4  1  0  0  0  0 
  4  5  1  0  0  0  0 
  5  6  1  0  0  0  0 
  6  7  2  0  0  0  0 
  6  8  1  0  0  0  0 
  8  9  1  6  0  0  0 
  8 10  1  0  0  0  0 
 11 10  1  1  0  0  0 
 11 12  1  0  0  0  0 
 12 13  1  0  0  0  0 
 13 14  1  0  0  0  0 
 11 15  1  0  0  0  0 
 15 16  2  0  0  0  0 
 15 17  1  0  0  0  0 
 17 18  1  0  0  0  0 
 18 19  1  0  0  0  0 
  5 20  1  0  0  0  0 
  2 20  1  0  0  0  0 
 20 21  1  1  0  0  0 
 20 22  1  0  0  0  0 
 22 23  1  0  0  0  0 
 23 24  1  0  0  0  0 
 24 25  1  0  0  0  0 
  2 25  1  0  0  0  0 
  4 26  1  6  0  0  0 
 26 27  1  0  0  0  0 
 26 28  2  0  0  0  0 
M  END
> <SMILES>
[H][C@]12C[C@H](N(C(=O)[C@H](C)N[C@@H](CCC)C(=O)OCC)[C@@]1([H])CCCC2)C(O)=O

$$$$

  CDK     06141809482D

 45 50  0  0  0  0  0  0  0  0999 V2000
    6.3500   -1.2990    0.0000 C   0  0  0  0  0  0  0  0  0  0  0  0
    4.8500   -1.2990    0.0000 C   0  0  0  0  0  0  0  0  0  0  0  0
    4.1000   -0.0000    0.0000 O   0  0  0  0  0  0  0  0  0  0  0  0
    2.6000    0.0000    0.0000 C   0  0  0  0  0  0  0  0  0  0  0  0
    1.7200   -1.2100    0.0000 N   0  0  0  0  0  0  0  0  0  0  0  0
    0.2900   -0.7500    0.0000 C   0  0  0  0  0  0  0  0  0  0  0  0
    0.2900    0.7500    0.0000 C   0  0  0  0  0  0  0  0  0  0  0  0
    1.7200    1.2100    0.0000 N   0  0  0  0  0  0  0  0  0  0  0  0
    2.1853    2.6360    0.0000 C   0  0  0  0  0  0  0  0  0  0  0  0
    3.6529    2.9461    0.0000 C   0  0  0  0  0  0  0  0  0  0  0  0
    4.6079    1.8561    0.0000 C   0  0  0  0  0  0  0  0  0  0  0  0
    6.0669    2.1047    0.0000 C   0  0  0  0  0  0  0  0  0  0  0  0
    6.5141    3.5347    0.0000 C   0  0  0  0  0  0  0  0  0  0  0  0
    5.5591    4.6247    0.0000 C   0  0  0  0  0  0  0  0  0  0  0  0
    4.1000    4.3761    0.0000 C   0  0  0  0  0  0  0  0  0  0  0  0
    7.9817    3.8448    0.0000 C   0  0  0  0  0  0  0  0  0  0  0  0
    8.9803    2.7360    0.0000 C   0  0  0  0  0  0  0  0  0  0  0  0
   10.4484    3.0436    0.0000 C   0  0  0  0  0  0  0  0  0  0  0  0
   10.9179    4.4600    0.0000 C   0  0  0  0  0  0  0  0  0  0  0  0
    9.9172    5.5786    0.0000 C   0  0  0  0  0  0  0  0  0  0  0  0
    8.4491    5.2710    0.0000 C   0  0  0  0  0  0  0  0  0  0  0  0
    7.4485    6.3884    0.0000 C   0  0  0  0  0  0  0  0  0  0  0  0
    5.9548    6.2305    0.0000 N   0  0  0  0  0  0  0  0  0  0  0  0
    5.3591    7.6094    0.0000 N   0  0  0  0  0  0  0  0  0  0  0  0
    6.4727    8.6033    0.0000 N   0  0  0  0  0  0  0  0  0  0  0  0
    7.7678    7.8465    0.0000 N   0  0  0  0  0  0  0  0  0  0  0  0
   -1.0100    1.5000    0.0000 C   0  0  0  0  0  0  0  0  0  0  0  0
   -2.3100    0.7500    0.0000 C   0  0  0  0  0  0  0  0  0  0  0  0
   -2.3100   -0.7500    0.0000 C   0  0  0  0  0  0  0  0  0  0  0  0
   -1.0100   -1.5000    0.0000 C   0  0  0  0  0  0  0  0  0  0  0  0
   -1.0100    3.0000    0.0000 C   0  0  0  0  0  0  0  0  0  0  0  0
    0.2890    3.7500    0.0000 O   0  0  0  0  0  0  0  0  0  0  0  0
   -2.3090    3.7500    0.0000 O   0  0  0  0  0  0  0  0  0  0  0  0
   -3.6081    3.0000    0.0000 C   0  0  0  0  0  0  0  0  0  0  0  0
   -3.6081    1.5000    0.0000 C   0  0  0  0  0  0  0  0  0  0  0  0
   -4.9071    3.7500    0.0000 O   0  0  0  0  0  0  0  0  0  0  0  0
   -6.2062    3.0000    0.0000 C   0  0  0  0  0  0  0  0  0  0  0  0
   -6.2062    1.5000    0.0000 O   0  0  0  0  0  0  0  0  0  0  0  0
   -7.5052    3.7500    0.0000 O   0  0  0  0  0  0  0  0  0  0  0  0
   -8.8042    3.0000    0.0000 C   0  0  0  0  0  0  0  0  0  0  0  0
  -10.1041    3.7502    0.0000 C   0  0  0  0  0  0  0  0  0  0  0  0
  -11.4042    3.0004    0.0000 C   0  0  0  0  0  0  0  0  0  0  0  0
  -11.4045    1.5004    0.0000 C   0  0  0  0  0  0  0  0  0  0  0  0
  -10.1046    0.7502    0.0000 C   0  0  0  0  0  0  0  0  0  0  0  0
   -8.8045    1.5000    0.0000 C   0  0  0  0  0  0  0  0  0  0  0  0
  1  2  1  0  0  0  0 
  2  3  1  0  0  0  0 
  3  4  1  0  0  0  0 
  4  5  2  0  0  0  0 
  5  6  1  0  0  0  0 
  6  7  2  0  0  0  0 
  7  8  1  0  0  0  0 
  4  8  1  0  0  0  0 
  8  9  1  0  0  0  0 
  9 10  1  0  0  0  0 
 10 11  2  0  0  0  0 
 11 12  1  0  0  0  0 
 12 13  2  0  0  0  0 
 13 14  1  0  0  0  0 
 14 15  2  0  0  0  0 
 10 15  1  0  0  0  0 
 13 16  1  0  0  0  0 
 16 17  2  0  0  0  0 
 17 18  1  0  0  0  0 
 18 19  2  0  0  0  0 
 19 20  1  0  0  0  0 
 20 21  2  0  0  0  0 
 16 21  1  0  0  0  0 
 21 22  1  0  0  0  0 
 22 23  2  0  0  0  0 
 23 24  1  0  0  0  0 
 24 25  2  0  0  0  0 
 25 26  1  0  0  0  0 
 22 26  1  0  0  0  0 
  7 27  1  0  0  0  0 
 27 28  2  0  0  0  0 
 28 29  1  0  0  0  0 
 29 30  2  0  0  0  0 
  6 30  1  0  0  0  0 
 27 31  1  0  0  0  0 
 31 32  2  0  0  0  0 
 31 33  1  0  0  0  0 
 33 34  1  0  0  0  0 
 34 35  1  0  0  0  0 
 34 36  1  0  0  0  0 
 36 37  1  0  0  0  0 
 37 38  2  0  0  0  0 
 37 39  1  0  0  0  0 
 39 40  1  0  0  0  0 
 40 41  1  0  0  0  0 
 41 42  1  0  0  0  0 
 42 43  1  0  0  0  0 
 43 44  1  0  0  0  0 
 44 45  1  0  0  0  0 
 40 45  1  0  0  0  0 
M  END
> <SMILES>
CCOC1=NC2=C(N1CC1=CC=C(C=C1)C1=CC=CC=C1C1=NN=NN1)C(=CC=C2)C(=O)OC(C)OC(=O)OC1CCCCC1

$$$$

  CDK     06141809482D

 30 32  0  0  0  0  0  0  0  0999 V2000
    5.7597   -4.1960    0.0000 C   0  0  0  0  0  0  0  0  0  0  0  0
    4.4607   -3.4460    0.0000 C   0  0  0  0  0  0  0  0  0  0  0  0
    3.1617   -4.1960    0.0000 N   0  0  0  0  0  0  0  0  0  0  0  0
    2.9959   -5.6889    0.0000 N   0  0  0  0  0  0  0  0  0  0  0  0
    1.5361   -6.0005    0.0000 N   0  0  0  0  0  0  0  0  0  0  0  0
    0.7861   -4.7015    0.0000 N   0  0  0  0  0  0  0  0  0  0  0  0
   -0.7056   -4.5440    0.0000 C   0  0  0  0  0  0  0  0  0  0  0  0
   -1.5878   -5.7572    0.0000 C   0  0  0  0  0  0  0  0  0  0  0  0
   -3.0795   -5.5997    0.0000 N   0  0  0  0  0  0  0  0  0  0  0  0
   -3.9618   -6.8138    0.0000 C   0  0  0  0  0  0  0  0  0  0  0  0
   -5.4535   -6.6564    0.0000 C   0  0  0  0  0  0  0  0  0  0  0  0
   -6.0629   -5.2848    0.0000 C   0  0  0  0  0  0  0  0  0  0  0  0
   -7.1046   -4.2055    0.0000 C   0  0  0  0  0  0  0  0  0  0  0  0
   -6.6906   -2.7637    0.0000 O   0  0  0  0  0  0  0  0  0  0  0  0
   -7.7322   -1.6843    0.0000 C   0  0  0  0  0  0  0  0  0  0  0  0
   -5.1806   -4.0707    0.0000 C   0  0  0  0  0  0  0  0  0  0  0  0
   -3.6889   -4.2282    0.0000 C   0  0  0  0  0  0  0  0  0  0  0  0
   -7.3069   -6.1229    0.0000 N   0  0  0  0  0  0  0  0  0  0  0  0
   -8.6548   -5.4646    0.0000 C   0  0  0  0  0  0  0  0  0  0  0  0
   -8.7586   -3.9682    0.0000 O   0  0  0  0  0  0  0  0  0  0  0  0
   -9.8988   -6.3027    0.0000 C   0  0  0  0  0  0  0  0  0  0  0  0
  -11.2466   -5.6444    0.0000 C   0  0  0  0  0  0  0  0  0  0  0  0
   -7.2031   -7.6193    0.0000 C   0  0  0  0  0  0  0  0  0  0  0  0
   -8.4481   -8.4575    0.0000 C   0  0  0  0  0  0  0  0  0  0  0  0
   -8.3443   -9.9539    0.0000 C   0  0  0  0  0  0  0  0  0  0  0  0
   -6.9955  -10.6121    0.0000 C   0  0  0  0  0  0  0  0  0  0  0  0
   -5.7505   -9.7740    0.0000 C   0  0  0  0  0  0  0  0  0  0  0  0
   -5.8543   -8.2776    0.0000 C   0  0  0  0  0  0  0  0  0  0  0  0
    1.7859   -3.5931    0.0000 C   0  0  0  0  0  0  0  0  0  0  0  0
    1.4704   -2.1267    0.0000 O   0  0  0  0  0  0  0  0  0  0  0  0
  1  2  1  0  0  0  0 
  2  3  1  0  0  0  0 
  3  4  1  0  0  0  0 
  4  5  2  0  0  0  0 
  5  6  1  0  0  0  0 
  6  7  1  0  0  0  0 
  7  8  1  0  0  0  0 
  8  9  1  0  0  0  0 
  9 10  1  0  0  0  0 
 10 11  1  0  0  0  0 
 11 12  1  0  0  0  0 
 12 13  1  0  0  0  0 
 13 14  1  0  0  0  0 
 14 15  1  0  0  0  0 
 12 16  1  0  0  0  0 
 16 17  1  0  0  0  0 
  9 17  1  0  0  0  0 
 12 18  1  0  0  0  0 
 18 19  1  0  0  0  0 
 19 20  2  0  0  0  0 
 19 21  1  0  0  0  0 
 21 22  1  0  0  0  0 
 18 23  1  0  0  0  0 
 23 24  2  0  0  0  0 
 24 25  1  0  0  0  0 
 25 26  2  0  0  0  0 
 26 27  1  0  0  0  0 
 27 28  2  0  0  0  0 
 23 28  1  0  0  0  0 
  6 29  1  0  0  0  0 
  3 29  1  0  0  0  0 
 29 30  2  0  0  0  0 
M  END
> <SMILES>
CCN1N=NN(CCN2CCC(COC)(CC2)N(C(=O)CC)C2=CC=CC=C2)C1=O

$$$$

  CDK     06141809482D

 23 26  0  0  0  0  0  0  0  0999 V2000
    3.0422    0.0908    0.0000 O   0  0  0  0  0  0  0  0  0  0  0  0
    2.5289    1.5002    0.0000 C   0  0  0  0  0  0  0  0  0  0  0  0
    2.5287    3.0002    0.0000 C   0  0  0  0  0  0  0  0  0  0  0  0
    3.8276    3.7504    0.0000 C   0  0  0  0  0  0  0  0  0  0  0  0
    3.8274    5.2504    0.0000 N   0  0  0  0  0  0  0  0  0  0  0  0
    2.5272    6.0002    0.0000 C   0  0  0  0  0  0  0  0  0  0  0  0
    2.5270    7.5002    0.0000 C   0  0  0  0  0  0  0  0  0  0  0  0
    3.8269    8.2504    0.0000 C   0  0  0  0  0  0  0  0  0  0  0  0
    5.1270    7.5006    0.0000 C   0  0  0  0  0  0  0  0  0  0  0  0
    5.1272    6.0006    0.0000 C   0  0  0  0  0  0  0  0  0  0  0  0
    1.2300    0.7500    0.0000 C   0  0  0  0  0  0  0  0  0  0  0  0
    1.2300   -0.7500    0.0000 C   0  0  0  0  0  0  0  0  0  0  0  0
   -0.0700   -1.5000    0.0000 C   0  0  0  0  0  0  0  0  0  0  0  0
    0.3900   -0.0000    0.0000 C   0  0  0  0  0  0  0  0  0  0  0  0
   -0.0700    1.5000    0.0000 C   0  0  0  0  0  0  0  0  0  0  0  0
   -1.3600    0.7500    0.0000 C   0  0  0  0  0  0  0  0  0  0  0  0
   -1.3600   -0.7500    0.0000 C   0  0  0  0  0  0  0  0  0  0  0  0
    4.0061    1.7609    0.0000 C   0  0  0  0  0  0  0  0  0  0  0  0
    4.5187    3.1715    0.0000 C   0  0  0  0  0  0  0  0  0  0  0  0
    5.9959    3.4322    0.0000 C   0  0  0  0  0  0  0  0  0  0  0  0
    6.9604    2.2823    0.0000 C   0  0  0  0  0  0  0  0  0  0  0  0
    6.4478    0.8718    0.0000 C   0  0  0  0  0  0  0  0  0  0  0  0
    4.9706    0.6111    0.0000 C   0  0  0  0  0  0  0  0  0  0  0  0
  1  2  1  0  0  0  0 
  2  3  1  0  0  0  0 
  3  4  1  0  0  0  0 
  4  5  1  0  0  0  0 
  5  6  1  0  0  0  0 
  6  7  1  0  0  0  0 
  7  8  1  0  0  0  0 
  8  9  1  0  0  0  0 
  9 10  1  0  0  0  0 
  5 10  1  0  0  0  0 
  2 11  1  0  0  0  0 
 11 12  1  0  0  0  0 
 12 13  1  0  0  0  0 
 13 14  1  0  0  0  0 
 14 15  1  0  0  0  0 
 11 15  1  0  0  0  0 
 15 16  1  0  0  0  0 
 16 17  2  0  0  0  0 
 13 17  1  0  0  0  0 
  2 18  1  0  0  0  0 
 18 19  2  0  0  0  0 
 19 20  1  0  0  0  0 
 20 21  2  0  0  0  0 
 21 22  1  0  0  0  0 
 22 23  2  0  0  0  0 
 18 23  1  0  0  0  0 
M  END
> <SMILES>
OC(CCN1CCCCC1)(C1CC2CC1C=C2)C1=CC=CC=C1

$$$$

  CDK     06141809482D

 25 27  0  0  0  0  0  0  0  0999 V2000
    8.4437   -1.8742    0.0000 C   0  0  0  0  0  0  0  0  0  0  0  0
    7.1447   -2.6242    0.0000 C   0  0  0  0  0  0  0  0  0  0  0  0
    5.8457   -1.8742    0.0000 C   0  0  0  0  0  0  0  0  0  0  0  0
    5.8457   -0.3742    0.0000 O   0  0  0  0  0  0  0  0  0  0  0  0
    4.5466   -2.6242    0.0000 N   0  0  0  0  0  0  0  0  0  0  0  0
    3.2476   -1.8742    0.0000 C   0  0  0  0  0  0  0  0  0  0  0  0
    3.2481   -0.3733    0.0000 C   0  0  0  0  0  0  0  0  0  0  0  0
    1.9490    0.3767    0.0000 C   0  0  0  0  0  0  0  0  0  0  0  0
    0.6495   -0.3742    0.0000 N   0  0  0  0  0  0  0  0  0  0  0  0
   -0.6495    0.3758    0.0000 C   0  0  0  0  0  0  0  0  0  0  0  0
   -1.9486   -0.3742    0.0000 C   0  0  0  0  0  0  0  0  0  0  0  0
   -3.2476    0.3758    0.0000 C   0  0  0  0  0  0  0  0  0  0  0  0
   -4.5471   -0.3750    0.0000 C   0  0  0  0  0  0  0  0  0  0  0  0
   -5.8462    0.3750    0.0000 C   0  0  0  0  0  0  0  0  0  0  0  0
   -5.8457    1.8758    0.0000 C   0  0  0  0  0  0  0  0  0  0  0  0
   -4.5462    2.6267    0.0000 C   0  0  0  0  0  0  0  0  0  0  0  0
   -3.2471    1.8767    0.0000 C   0  0  0  0  0  0  0  0  0  0  0  0
    0.6490   -1.8750    0.0000 C   0  0  0  0  0  0  0  0  0  0  0  0
    1.9481   -2.6250    0.0000 C   0  0  0  0  0  0  0  0  0  0  0  0
    4.5466   -4.1242    0.0000 C   0  0  0  0  0  0  0  0  0  0  0  0
    3.2466   -4.8742    0.0000 C   0  0  0  0  0  0  0  0  0  0  0  0
    3.2466   -6.3742    0.0000 C   0  0  0  0  0  0  0  0  0  0  0  0
    4.5466   -7.1242    0.0000 C   0  0  0  0  0  0  0  0  0  0  0  0
    5.8466   -6.3742    0.0000 C   0  0  0  0  0  0  0  0  0  0  0  0
    5.8466   -4.8742    0.0000 C   0  0  0  0  0  0  0  0  0  0  0  0
  1  2  1  0  0  0  0 
  2  3  1  0  0  0  0 
  3  4  2  0  0  0  0 
  3  5  1  0  0  0  0 
  5  6  1  0  0  0  0 
  6  7  1  0  0  0  0 
  7  8  1  0  0  0  0 
  8  9  1  0  0  0  0 
  9 10  1  0  0  0  0 
 10 11  1  0  0  0  0 
 11 12  1  0  0  0  0 
 12 13  2  0  0  0  0 
 13 14  1  0  0  0  0 
 14 15  2  0  0  0  0 
 15 16  1  0  0  0  0 
 16 17  2  0  0  0  0 
 12 17  1  0  0  0  0 
  9 18  1  0  0  0  0 
 18 19  1  0  0  0  0 
  6 19  1  0  0  0  0 
  5 20  1  0  0  0  0 
 20 21  2  0  0  0  0 
 21 22  1  0  0  0  0 
 22 23  2  0  0  0  0 
 23 24  1  0  0  0  0 
 24 25  2  0  0  0  0 
 20 25  1  0  0  0  0 
M  END
> <SMILES>
CCC(=O)N(C1CCN(CCC2=CC=CC=C2)CC1)C1=CC=CC=C1

$$$$

  CDK     06141809482D

 20 22  0  0  0  0  0  0  0  0999 V2000
   -0.5568   -3.1525    0.0000 C   0  0  0  0  0  0  0  0  0  0  0  0
   -0.8900   -1.6900    0.0000 N   0  0  0  0  0  0  0  0  0  0  0  0
    0.2800   -0.7500    0.0000 C   0  0  0  0  0  0  0  0  0  0  0  0
    0.2800    0.7500    0.0000 C   0  0  0  0  0  0  0  0  0  0  0  0
    1.5800    1.5000    0.0000 C   0  0  0  0  0  0  0  0  0  0  0  0
    2.8800    0.7500    0.0000 C   0  0  0  0  0  0  0  0  0  0  0  0
    4.1789    1.5002    0.0000 Cl  0  0  0  0  0  0  0  0  0  0  0  0
    2.8800   -0.7500    0.0000 C   0  0  0  0  0  0  0  0  0  0  0  0
    1.5800   -1.5000    0.0000 C   0  0  0  0  0  0  0  0  0  0  0  0
   -0.8900    1.6900    0.0000 C   0  0  0  0  0  0  0  0  0  0  0  0
   -2.3500    1.3500    0.0000 N   0  0  0  0  0  0  0  0  0  0  0  0
   -3.0000    0.0000    0.0000 C   0  0  0  0  0  0  0  0  0  0  0  0
   -2.3500   -1.3500    0.0000 C   0  0  0  0  0  0  0  0  0  0  0  0
   -3.2879   -2.5207    0.0000 O   0  0  0  0  0  0  0  0  0  0  0  0
   -0.5568    3.1525    0.0000 C   0  0  0  0  0  0  0  0  0  0  0  0
   -1.6577    4.1726    0.0000 C   0  0  0  0  0  0  0  0  0  0  0  0
   -1.3245    5.6351    0.0000 C   0  0  0  0  0  0  0  0  0  0  0  0
    0.1096    6.0776    0.0000 C   0  0  0  0  0  0  0  0  0  0  0  0
    1.2106    5.0575    0.0000 C   0  0  0  0  0  0  0  0  0  0  0  0
    0.8773    3.5950    0.0000 C   0  0  0  0  0  0  0  0  0  0  0  0
  1  2  1  0  0  0  0 
  2  3  1  0  0  0  0 
  3  4  2  0  0  0  0 
  4  5  1  0  0  0  0 
  5  6  2  0  0  0  0 
  6  7  1  0  0  0  0 
  6  8  1  0  0  0  0 
  8  9  2  0  0  0  0 
  3  9  1  0  0  0  0 
  4 10  1  0  0  0  0 
 10 11  2  0  0  0  0 
 11 12  1  0  0  0  0 
 12 13  1  0  0  0  0 
  2 13  1  0  0  0  0 
 13 14  2  0  0  0  0 
 10 15  1  0  0  0  0 
 15 16  2  0  0  0  0 
 16 17  1  0  0  0  0 
 17 18  2  0  0  0  0 
 18 19  1  0  0  0  0 
 19 20  2  0  0  0  0 
 15 20  1  0  0  0  0 
M  END
> <SMILES>
CN1C2=C(C=C(Cl)C=C2)C(=NCC1=O)C1=CC=CC=C1

$$$$

  CDK     06141809482D

 28 31  0  0  0  0  0  0  0  0999 V2000
   -6.8372    7.9612    0.0000 C   0  0  0  0  0  0  0  0  0  0  0  0
   -5.5369    7.2134    0.0000 N   0  0  0  0  0  0  0  0  0  0  0  0
   -5.5342    5.7125    0.0000 C   0  0  0  0  0  0  0  0  0  0  0  0
   -4.2335    4.9637    0.0000 C   0  0  0  0  0  0  0  0  0  0  0  0
   -2.9356    5.7156    0.0000 N   0  0  0  0  0  0  0  0  0  0  0  0
   -1.6353    4.9678    0.0000 C   0  0  0  0  0  0  0  0  0  0  0  0
   -1.6328    3.4678    0.0000 C   0  0  0  0  0  0  0  0  0  0  0  0
   -0.3325    2.7200    0.0000 C   0  0  0  0  0  0  0  0  0  0  0  0
   -0.3300    1.2200    0.0000 N   0  0  0  0  0  0  0  0  0  0  0  0
   -1.6200    0.4700    0.0000 C   0  0  0  0  0  0  0  0  0  0  0  0
   -2.9200    1.2200    0.0000 C   0  0  0  0  0  0  0  0  0  0  0  0
   -4.2200    0.4700    0.0000 C   0  0  0  0  0  0  0  0  0  0  0  0
   -4.2200   -1.0300    0.0000 C   0  0  0  0  0  0  0  0  0  0  0  0
   -2.9200   -1.7800    0.0000 C   0  0  0  0  0  0  0  0  0  0  0  0
   -1.6200   -1.0300    0.0000 C   0  0  0  0  0  0  0  0  0  0  0  0
   -0.3300   -1.7800    0.0000 S   0  0  0  0  0  0  0  0  0  0  0  0
    0.9700   -1.0300    0.0000 C   0  0  0  0  0  0  0  0  0  0  0  0
    0.9700    0.4700    0.0000 C   0  0  0  0  0  0  0  0  0  0  0  0
    2.2700    1.2200    0.0000 C   0  0  0  0  0  0  0  0  0  0  0  0
    3.5700    0.4700    0.0000 C   0  0  0  0  0  0  0  0  0  0  0  0
    3.5700   -1.0300    0.0000 C   0  0  0  0  0  0  0  0  0  0  0  0
    2.2700   -1.7800    0.0000 C   0  0  0  0  0  0  0  0  0  0  0  0
    4.8689    1.2202    0.0000 C   0  0  0  0  0  0  0  0  0  0  0  0
    6.1681    0.4704    0.0000 F   0  0  0  0  0  0  0  0  0  0  0  0
    5.8329    2.3694    0.0000 F   0  0  0  0  0  0  0  0  0  0  0  0
    3.9046    2.3691    0.0000 F   0  0  0  0  0  0  0  0  0  0  0  0
   -2.9384    7.2165    0.0000 C   0  0  0  0  0  0  0  0  0  0  0  0
   -4.2390    7.9653    0.0000 C   0  0  0  0  0  0  0  0  0  0  0  0
  1  2  1  0  0  0  0 
  2  3  1  0  0  0  0 
  3  4  1  0  0  0  0 
  4  5  1  0  0  0  0 
  5  6  1  0  0  0  0 
  6  7  1  0  0  0  0 
  7  8  1  0  0  0  0 
  8  9  1  0  0  0  0 
  9 10  1  0  0  0  0 
 10 11  2  0  0  0  0 
 11 12  1  0  0  0  0 
 12 13  2  0  0  0  0 
 13 14  1  0  0  0  0 
 14 15  2  0  0  0  0 
 10 15  1  0  0  0  0 
 15 16  1  0  0  0  0 
 16 17  1  0  0  0  0 
 17 18  2  0  0  0  0 
  9 18  1  0  0  0  0 
 18 19  1  0  0  0  0 
 19 20  2  0  0  0  0 
 20 21  1  0  0  0  0 
 21 22  2  0  0  0  0 
 17 22  1  0  0  0  0 
 20 23  1  0  0  0  0 
 23 24  1  0  0  0  0 
 23 25  1  0  0  0  0 
 23 26  1  0  0  0  0 
  5 27  1  0  0  0  0 
 27 28  1  0  0  0  0 
  2 28  1  0  0  0  0 
M  END
> <SMILES>
CN1CCN(CCCN2C3=CC=CC=C3SC3=C2C=C(C=C3)C(F)(F)F)CC1

$$$$

  CDK     06141809482D

 33 37  0  0  0  0  0  0  0  0999 V2000
    7.7970   -1.5006    0.0000 C   0  0  0  0  0  0  0  0  0  0  0  0
    6.4981   -0.7504    0.0000 C   0  0  0  0  0  0  0  0  0  0  0  0
    6.4983    0.7496    0.0000 C   0  0  0  0  0  0  0  0  0  0  0  0
    5.1989   -1.5002    0.0000 N   0  0  0  0  0  0  0  0  0  0  0  0
    3.9000   -0.7500    0.0000 C   0  0  0  0  0  0  0  0  0  0  0  0
    2.6000   -1.5000    0.0000 C   0  0  0  0  0  0  0  0  0  0  0  0
    1.3000   -0.7500    0.0000 C   0  0  0  0  0  0  0  0  0  0  0  0
   -0.0000   -1.5000    0.0000 N   0  0  0  0  0  0  0  0  0  0  0  0
   -0.0000   -3.0000    0.0000 C   0  0  0  0  0  0  0  0  0  0  0  0
   -1.2996   -3.7506    0.0000 C   0  0  0  0  0  0  0  0  0  0  0  0
   -1.3004   -5.2515    0.0000 C   0  0  0  0  0  0  0  0  0  0  0  0
   -0.0014   -6.0017    0.0000 C   0  0  0  0  0  0  0  0  0  0  0  0
   -0.0014   -7.5017    0.0000 Cl  0  0  0  0  0  0  0  0  0  0  0  0
    1.2982   -5.2510    0.0000 C   0  0  0  0  0  0  0  0  0  0  0  0
    1.2989   -3.7502    0.0000 C   0  0  0  0  0  0  0  0  0  0  0  0
   -1.3000   -0.7500    0.0000 C   0  0  0  0  0  0  0  0  0  0  0  0
   -1.3000    0.7500    0.0000 C   0  0  0  0  0  0  0  0  0  0  0  0
   -2.6000    1.5000    0.0000 C   0  0  0  0  0  0  0  0  0  0  0  0
   -3.9000    0.7500    0.0000 C   0  0  0  0  0  0  0  0  0  0  0  0
   -3.9000   -0.7500    0.0000 C   0  0  0  0  0  0  0  0  0  0  0  0
   -2.6000   -1.5000    0.0000 C   0  0  0  0  0  0  0  0  0  0  0  0
    0.0000    1.5000    0.0000 N   0  0  0  0  0  0  0  0  0  0  0  0
    1.3000    0.7500    0.0000 C   0  0  0  0  0  0  0  0  0  0  0  0
    2.6000    1.5000    0.0000 C   0  0  0  0  0  0  0  0  0  0  0  0
    3.9000    0.7500    0.0000 C   0  0  0  0  0  0  0  0  0  0  0  0
    5.1989    1.5002    0.0000 N   0  0  0  0  0  0  0  0  0  0  0  0
    5.1987    3.0002    0.0000 C   0  0  0  0  0  0  0  0  0  0  0  0
    6.4982    3.7510    0.0000 C   0  0  0  0  0  0  0  0  0  0  0  0
    6.4987    5.2519    0.0000 C   0  0  0  0  0  0  0  0  0  0  0  0
    5.1996    6.0019    0.0000 C   0  0  0  0  0  0  0  0  0  0  0  0
    5.1994    7.5019    0.0000 Cl  0  0  0  0  0  0  0  0  0  0  0  0
    3.9001    5.2510    0.0000 C   0  0  0  0  0  0  0  0  0  0  0  0
    3.8996    3.7502    0.0000 C   0  0  0  0  0  0  0  0  0  0  0  0
  1  2  1  0  0  0  0 
  2  3  1  0  0  0  0 
  2  4  1  0  0  0  0 
  4  5  2  0  0  0  0 
  5  6  1  4  0  0  0 
  6  7  2  0  0  0  0 
  7  8  1  0  0  0  0 
  8  9  1  0  0  0  0 
  9 10  2  0  0  0  0 
 10 11  1  0  0  0  0 
 11 12  2  0  0  0  0 
 12 13  1  0  0  0  0 
 12 14  1  0  0  0  0 
 14 15  2  0  0  0  0 
  9 15  1  0  0  0  0 
  8 16  1  0  0  0  0 
 16 17  2  0  0  0  0 
 17 18  1  0  0  0  0 
 18 19  2  0  0  0  0 
 19 20  1  0  0  0  0 
 20 21  2  0  0  0  0 
 16 21  1  0  0  0  0 
 17 22  1  0  0  0  0 
 22 23  2  0  0  0  0 
  7 23  1  0  0  0  0 
 23 24  1  0  0  0  0 
 24 25  2  0  0  0  0 
  5 25  1  0  0  0  0 
 25 26  1  0  0  0  0 
 26 27  1  0  0  0  0 
 27 28  2  0  0  0  0 
 28 29  1  0  0  0  0 
 29 30  2  0  0  0  0 
 30 31  1  0  0  0  0 
 30 32  1  0  0  0  0 
 32 33  2  0  0  0  0 
 27 33  1  0  0  0  0 
M  END
> <SMILES>
CC(C)N=C1C=C2N(C3=CC=C(Cl)C=C3)C3=C(C=CC=C3)N=C2C=C1NC1=CC=C(Cl)C=C1

$$$$

  CDK     06141809482D

 29 32  0  0  1  0  0  0  0  0999 V2000
    1.1203    0.3707    0.0000 H   0  0  0  0  0  0  0  0  0  0  0  0
    2.3358   -0.5082    0.0000 C   0  0  2  0  0  0  0  0  0  0  0  0
    3.7558   -0.9782    0.0000 C   0  0  0  0  0  0  0  0  0  0  0  0
    4.6458    0.2418    0.0000 C   0  0  0  0  0  0  0  0  0  0  0  0
    3.7558    1.4518    0.0000 C   0  0  2  0  0  0  0  0  0  0  0  0
    5.0522    2.2065    0.0000 O   0  0  0  0  0  0  0  0  0  0  0  0
    2.9480    3.2595    0.0000 C   0  0  0  0  0  0  0  0  0  0  0  0
    1.4560    3.4142    0.0000 O   0  0  0  0  0  0  0  0  0  0  0  0
    3.8280    4.4742    0.0000 C   0  0  0  0  0  0  0  0  0  0  0  0
    5.3200    4.3195    0.0000 O   0  0  0  0  0  0  0  0  0  0  0  0
    2.3358    0.9918    0.0000 C   0  0  2  0  0  0  0  0  0  0  0  0
    2.4930    2.4835    0.0000 C   0  0  0  0  0  0  0  0  0  0  0  0
    1.0358    1.7418    0.0000 C   0  0  0  0  0  0  0  0  0  0  0  0
   -0.2642    0.9918    0.0000 C   0  0  2  0  0  0  0  0  0  0  0  0
   -1.5631    1.7420    0.0000 O   0  0  0  0  0  0  0  0  0  0  0  0
   -0.2642   -0.5082    0.0000 C   0  0  1  0  0  0  0  0  0  0  0  0
   -0.2649   -2.0082    0.0000 H   0  0  0  0  0  0  0  0  0  0  0  0
    1.0358   -1.2582    0.0000 C   0  0  1  0  0  0  0  0  0  0  0  0
    2.3347   -2.0084    0.0000 H   0  0  0  0  0  0  0  0  0  0  0  0
    1.0358   -2.7582    0.0000 C   0  0  0  0  0  0  0  0  0  0  0  0
   -0.2642   -3.5082    0.0000 C   0  0  0  0  0  0  0  0  0  0  0  0
   -1.5642   -2.7582    0.0000 C   0  0  0  0  0  0  0  0  0  0  0  0
   -2.8642   -3.5082    0.0000 C   0  0  0  0  0  0  0  0  0  0  0  0
   -4.1642   -2.7582    0.0000 C   0  0  0  0  0  0  0  0  0  0  0  0
   -5.4631   -3.5084    0.0000 O   0  0  0  0  0  0  0  0  0  0  0  0
   -4.1642   -1.2582    0.0000 C   0  0  0  0  0  0  0  0  0  0  0  0
   -2.8642   -0.5082    0.0000 C   0  0  0  0  0  0  0  0  0  0  0  0
   -1.5642   -1.2582    0.0000 C   0  0  2  0  0  0  0  0  0  0  0  0
   -1.5642    0.2418    0.0000 C   0  0  0  0  0  0  0  0  0  0  0  0
  2  1  1  6  0  0  0 
  2  3  1  0  0  0  0 
  3  4  1  0  0  0  0 
  4  5  1  0  0  0  0 
  5  6  1  6  0  0  0 
  5  7  1  1  0  0  0 
  7  8  2  0  0  0  0 
  7  9  1  0  0  0  0 
  9 10  1  0  0  0  0 
  5 11  1  0  0  0  0 
  2 11  1  0  0  0  0 
 11 12  1  1  0  0  0 
 11 13  1  0  0  0  0 
 13 14  1  0  0  0  0 
 14 15  1  1  0  0  0 
 14 16  1  0  0  0  0 
 16 17  1  6  0  0  0 
 16 18  1  0  0  0  0 
  2 18  1  0  0  0  0 
 18 19  1  1  0  0  0 
 18 20  1  0  0  0  0 
 20 21  1  0  0  0  0 
 21 22  1  0  0  0  0 
 22 23  2  0  0  0  0 
 23 24  1  0  0  0  0 
 24 25  2  0  0  0  0 
 24 26  1  0  0  0  0 
 26 27  2  0  0  0  0 
 27 28  1  0  0  0  0 
 16 28  1  0  0  0  0 
 22 28  1  0  0  0  0 
 28 29  1  1  0  0  0 
M  END
> <SMILES>
[H][C@@]12CC[C@](O)(C(=O)CO)[C@@]1(C)C[C@H](O)[C@@]1([H])[C@@]2([H])CCC2=CC(=O)C=C[C@]12C

$$$$

  CDK     06141809482D

 31 34  0  0  0  0  0  0  0  0999 V2000
    1.2990    3.6900    0.0000 H   0  0  0  0  0  0  0  0  0  0  0  0
    0.0000    2.9400    0.0000 C   0  0  0  0  0  0  0  0  0  0  0  0
   -1.2990    3.6900    0.0000 C   0  0  0  0  0  0  0  0  0  0  0  0
   -1.2990    5.1900    0.0000 C   0  0  0  0  0  0  0  0  0  0  0  0
   -2.5981    5.9400    0.0000 N   0  0  0  0  0  0  0  0  0  0  0  0
   -2.5983    7.4408    0.0000 C   0  0  0  0  0  0  0  0  0  0  0  0
   -3.8977    8.1919    0.0000 C   0  0  0  0  0  0  0  0  0  0  0  0
   -5.1969    7.4421    0.0000 N   0  0  0  0  0  0  0  0  0  0  0  0
   -6.4959    8.1921    0.0000 C   0  0  0  0  0  0  0  0  0  0  0  0
   -6.4959    9.6921    0.0000 C   0  0  0  0  0  0  0  0  0  0  0  0
   -7.7950   10.4421    0.0000 O   0  0  0  0  0  0  0  0  0  0  0  0
   -5.1966    5.9412    0.0000 C   0  0  0  0  0  0  0  0  0  0  0  0
   -3.8972    5.1902    0.0000 C   0  0  0  0  0  0  0  0  0  0  0  0
    0.0000    1.4400    0.0000 C   0  0  0  0  0  0  0  0  0  0  0  0
   -1.2500    0.7200    0.0000 C   0  0  0  0  0  0  0  0  0  0  0  0
   -2.5400    1.4900    0.0000 C   0  0  0  0  0  0  0  0  0  0  0  0
   -3.8400    0.7500    0.0000 C   0  0  0  0  0  0  0  0  0  0  0  0
   -3.8400   -0.7500    0.0000 C   0  0  0  0  0  0  0  0  0  0  0  0
   -2.5400   -1.4900    0.0000 C   0  0  0  0  0  0  0  0  0  0  0  0
   -1.2500   -0.7200    0.0000 C   0  0  0  0  0  0  0  0  0  0  0  0
    0.0000   -1.4400    0.0000 S   0  0  0  0  0  0  0  0  0  0  0  0
    1.2500   -0.7200    0.0000 C   0  0  0  0  0  0  0  0  0  0  0  0
    1.2500    0.7200    0.0000 C   0  0  0  0  0  0  0  0  0  0  0  0
    2.5400    1.4900    0.0000 C   0  0  0  0  0  0  0  0  0  0  0  0
    3.8400    0.7500    0.0000 C   0  0  0  0  0  0  0  0  0  0  0  0
    3.8400   -0.7500    0.0000 C   0  0  0  0  0  0  0  0  0  0  0  0
    2.5400   -1.4900    0.0000 C   0  0  0  0  0  0  0  0  0  0  0  0
    5.1367    1.5040    0.0000 C   0  0  0  0  0  0  0  0  0  0  0  0
    6.4381    0.7579    0.0000 F   0  0  0  0  0  0  0  0  0  0  0  0
    6.0974    2.6560    0.0000 F   0  0  0  0  0  0  0  0  0  0  0  0
    4.1691    2.6501    0.0000 F   0  0  0  0  0  0  0  0  0  0  0  0
  1  2  1  4  0  0  0 
  2  3  1  0  0  0  0 
  3  4  1  0  0  0  0 
  4  5  1  0  0  0  0 
  5  6  1  0  0  0  0 
  6  7  1  0  0  0  0 
  7  8  1  0  0  0  0 
  8  9  1  0  0  0  0 
  9 10  1  0  0  0  0 
 10 11  1  0  0  0  0 
  8 12  1  0  0  0  0 
 12 13  1  0  0  0  0 
  5 13  1  0  0  0  0 
  2 14  2  0  0  0  0 
 14 15  1  0  0  0  0 
 15 16  2  0  0  0  0 
 16 17  1  0  0  0  0 
 17 18  2  0  0  0  0 
 18 19  1  0  0  0  0 
 19 20  2  0  0  0  0 
 15 20  1  0  0  0  0 
 20 21  1  0  0  0  0 
 21 22  1  0  0  0  0 
 22 23  2  0  0  0  0 
 14 23  1  0  0  0  0 
 23 24  1  0  0  0  0 
 24 25  2  0  0  0  0 
 25 26  1  0  0  0  0 
 26 27  2  0  0  0  0 
 22 27  1  0  0  0  0 
 25 28  1  0  0  0  0 
 28 29  1  0  0  0  0 
 28 30  1  0  0  0  0 
 28 31  1  0  0  0  0 
M  END
> <SMILES>
[H]C(CCN1CCN(CCO)CC1)=C1/C2=CC=CC=C2SC2=C1C=C(C=C2)C(F)(F)F

$$$$

  CDK     06141809482D

 29 31  0  0  0  0  0  0  0  0999 V2000
   -9.1140   -0.8143    0.0000 C   0  0  0  0  0  0  0  0  0  0  0  0
   -7.8088   -1.5536    0.0000 C   0  0  0  0  0  0  0  0  0  0  0  0
   -6.5160   -0.7929    0.0000 N   0  0  0  0  0  0  0  0  0  0  0  0
   -6.5284    0.7071    0.0000 C   0  0  0  0  0  0  0  0  0  0  0  0
   -7.8335    1.4463    0.0000 C   0  0  0  0  0  0  0  0  0  0  0  0
   -5.2108   -1.5321    0.0000 C   0  0  0  0  0  0  0  0  0  0  0  0
   -3.9180   -0.7714    0.0000 C   0  0  0  0  0  0  0  0  0  0  0  0
   -2.6128   -1.5107    0.0000 O   0  0  0  0  0  0  0  0  0  0  0  0
   -1.3200   -0.7500    0.0000 C   0  0  0  0  0  0  0  0  0  0  0  0
    0.0300   -1.5000    0.0000 C   0  0  0  0  0  0  0  0  0  0  0  0
    1.3000   -0.7500    0.0000 C   0  0  0  0  0  0  0  0  0  0  0  0
    1.3000    0.7500    0.0000 C   0  0  0  0  0  0  0  0  0  0  0  0
    0.0300    1.5000    0.0000 C   0  0  0  0  0  0  0  0  0  0  0  0
   -1.3200    0.7500    0.0000 C   0  0  0  0  0  0  0  0  0  0  0  0
    2.6027    1.4936    0.0000 C   0  0  0  0  0  0  0  0  0  0  0  0
    3.8980    0.7372    0.0000 C   0  0  0  0  0  0  0  0  0  0  0  0
    3.8907   -0.7628    0.0000 Cl  0  0  0  0  0  0  0  0  0  0  0  0
    5.2008    1.4808    0.0000 C   0  0  0  0  0  0  0  0  0  0  0  0
    5.2077    2.9816    0.0000 C   0  0  0  0  0  0  0  0  0  0  0  0
    6.5104    3.7252    0.0000 C   0  0  0  0  0  0  0  0  0  0  0  0
    7.8062    2.9680    0.0000 C   0  0  0  0  0  0  0  0  0  0  0  0
    7.7993    1.4672    0.0000 C   0  0  0  0  0  0  0  0  0  0  0  0
    6.4966    0.7236    0.0000 C   0  0  0  0  0  0  0  0  0  0  0  0
    2.6101    2.9936    0.0000 C   0  0  0  0  0  0  0  0  0  0  0  0
    1.3138    3.7500    0.0000 C   0  0  0  0  0  0  0  0  0  0  0  0
    1.3212    5.2500    0.0000 C   0  0  0  0  0  0  0  0  0  0  0  0
    2.6249    5.9935    0.0000 C   0  0  0  0  0  0  0  0  0  0  0  0
    3.9212    5.2372    0.0000 C   0  0  0  0  0  0  0  0  0  0  0  0
    3.9138    3.7372    0.0000 C   0  0  0  0  0  0  0  0  0  0  0  0
  1  2  1  0  0  0  0 
  2  3  1  0  0  0  0 
  3  4  1  0  0  0  0 
  4  5  1  0  0  0  0 
  3  6  1  0  0  0  0 
  6  7  1  0  0  0  0 
  7  8  1  0  0  0  0 
  8  9  1  0  0  0  0 
  9 10  2  0  0  0  0 
 10 11  1  0  0  0  0 
 11 12  2  0  0  0  0 
 12 13  1  0  0  0  0 
 13 14  2  0  0  0  0 
  9 14  1  0  0  0  0 
 12 15  1  0  0  0  0 
 15 16  2  0  0  0  0 
 16 17  1  4  0  0  0 
 16 18  1  0  0  0  0 
 18 19  2  0  0  0  0 
 19 20  1  0  0  0  0 
 20 21  2  0  0  0  0 
 21 22  1  0  0  0  0 
 22 23  2  0  0  0  0 
 18 23  1  0  0  0  0 
 15 24  1  0  0  0  0 
 24 25  2  0  0  0  0 
 25 26  1  0  0  0  0 
 26 27  2  0  0  0  0 
 27 28  1  0  0  0  0 
 28 29  2  0  0  0  0 
 24 29  1  0  0  0  0 
M  END
> <SMILES>
CCN(CC)CCOC1=CC=C(C=C1)C(=C(Cl)C1=CC=CC=C1)C1=CC=CC=C1

$$$$

  CDK     06141809482D

 11 13  0  0  0  0  0  0  0  0999 V2000
    0.2900    3.2900    0.0000 N   0  0  0  0  0  0  0  0  0  0  0  0
    0.2900    1.7900    0.0000 C   0  0  0  0  0  0  0  0  0  0  0  0
   -0.5200    0.1700    0.0000 C   0  0  0  0  0  0  0  0  0  0  0  0
   -0.5200   -1.3300    0.0000 C   0  0  0  0  0  0  0  0  0  0  0  0
   -1.8200   -1.9400    0.0000 C   0  0  0  0  0  0  0  0  0  0  0  0
   -1.0100   -0.4600    0.0000 C   0  0  0  0  0  0  0  0  0  0  0  0
    0.2900   -1.2100    0.0000 C   0  0  0  0  0  0  0  0  0  0  0  0
    1.5900   -0.4600    0.0000 C   0  0  0  0  0  0  0  0  0  0  0  0
    0.8500   -1.9400    0.0000 C   0  0  0  0  0  0  0  0  0  0  0  0
    1.5900    1.0400    0.0000 C   0  0  0  0  0  0  0  0  0  0  0  0
   -1.0100    1.0400    0.0000 C   0  0  0  0  0  0  0  0  0  0  0  0
  1  2  1  0  0  0  0 
  2  3  1  0  0  0  0 
  3  4  1  0  0  0  0 
  4  5  1  0  0  0  0 
  5  6  1  0  0  0  0 
  6  7  1  0  0  0  0 
  7  8  1  0  0  0  0 
  8  9  1  0  0  0  0 
  4  9  1  0  0  0  0 
  8 10  1  0  0  0  0 
  2 10  1  0  0  0  0 
  6 11  1  0  0  0  0 
  2 11  1  0  0  0  0 
M  END
> <SMILES>
NC12CC3CC(CC(C3)C1)C2

$$$$

  CDK     06141809482D

 34 40  0  0  1  0  0  0  0  0999 V2000
   -4.3118   -7.3248    0.0000 C   0  0  0  0  0  0  0  0  0  0  0  0
   -4.3120   -5.8248    0.0000 O   0  0  0  0  0  0  0  0  0  0  0  0
   -3.0131   -5.0746    0.0000 C   0  0  2  0  0  0  0  0  0  0  0  0
   -1.7131   -5.8246    0.0000 C   0  0  0  0  0  0  0  0  0  0  0  0
   -0.4131   -5.0746    0.0000 C   0  0  0  0  0  0  0  0  0  0  0  0
   -0.4131   -3.5746    0.0000 C   0  0  1  0  0  0  0  0  0  0  0  0
   -1.1631   -4.8746    0.0000 C   0  0  0  0  0  0  0  0  0  0  0  0
   -2.2631   -3.7746    0.0000 C   0  0  2  0  0  0  0  0  0  0  0  0
   -2.5846   -1.3357    0.0000 C   0  0  2  0  0  0  0  0  0  0  0  0
   -0.1269   -1.4426    0.0000 C   0  0  0  0  0  0  0  0  0  0  0  0
   -2.0525    1.0661    0.0000 O   0  0  0  0  0  0  0  0  0  0  0  0
   -5.3010   -0.2110    0.0000 C   0  0  0  0  0  0  0  0  0  0  0  0
   -5.6224    2.2279    0.0000 C   0  0  0  0  0  0  0  0  0  0  0  0
   -5.9368   -3.0815    0.0000 C   0  0  0  0  0  0  0  0  0  0  0  0
   -7.7586   -0.1041    0.0000 C   0  0  0  0  0  0  0  0  0  0  0  0
    0.8869   -2.8246    0.0000 C   0  0  1  0  0  0  0  0  0  0  0  0
    0.8869   -1.3246    0.0000 C   0  0  0  0  0  0  0  0  0  0  0  0
   -0.4131   -0.5746    0.0000 C   0  0  0  0  0  0  0  0  0  0  0  0
   -1.7131   -1.3246    0.0000 C   0  0  0  0  0  0  0  0  0  0  0  0
   -3.0131   -0.5746    0.0000 C   0  0  0  0  0  0  0  0  0  0  0  0
   -4.0731   -1.6346    0.0000 O   0  0  0  0  0  0  0  0  0  0  0  0
   -3.0131   -3.5746    0.0000 C   0  0  2  0  0  0  0  0  0  0  0  0
   -1.7131   -2.8246    0.0000 C   0  0  1  0  0  0  0  0  0  0  0  0
   -0.4131   -2.0746    0.0000 C   0  0  0  0  0  0  0  0  0  0  0  0
    2.1869   -2.0746    0.0000 C   0  0  0  0  0  0  0  0  0  0  0  0
    2.1869   -3.5746    0.0000 N   0  0  0  0  0  0  0  0  0  0  0  0
    2.7832   -4.9510    0.0000 C   0  0  0  0  0  0  0  0  0  0  0  0
    4.2734   -5.1227    0.0000 C   0  0  0  0  0  0  0  0  0  0  0  0
    5.6507   -4.5265    0.0000 C   0  0  0  0  0  0  0  0  0  0  0  0
    5.4790   -6.0166    0.0000 C   0  0  0  0  0  0  0  0  0  0  0  0
   -3.0131    0.9254    0.0000 C   0  0  0  0  0  0  0  0  0  0  0  0
   -4.3120    1.6756    0.0000 O   0  0  0  0  0  0  0  0  0  0  0  0
   -1.7131    1.6754    0.0000 C   0  0  0  0  0  0  0  0  0  0  0  0
   -0.4131    0.9254    0.0000 C   0  0  0  0  0  0  0  0  0  0  0  0
  1  2  1  0  0  0  0 
  3  2  1  1  0  0  0 
  3  4  1  0  0  0  0 
  4  5  1  0  0  0  0 
  6  5  1  6  0  0  0 
  6  7  1  1  0  0  0 
  8  7  1  1  0  0  0 
  3  8  1  0  0  0  0 
  8  9  1  0  0  0  0 
  9 10  1  6  0  0  0 
  9 11  1  1  0  0  0 
  9 12  1  0  0  0  0 
 12 13  1  0  0  0  0 
 12 14  1  0  0  0  0 
 12 15  1  0  0  0  0 
  6 16  1  0  0  0  0 
 16 17  1  0  0  0  0 
 17 18  1  0  0  0  0 
 18 19  2  0  0  0  0 
 19 20  1  0  0  0  0 
 20 21  1  0  0  0  0 
 22 21  1  6  0  0  0 
  3 22  1  0  0  0  0 
 22 23  1  0  0  0  0 
  6 23  1  0  0  0  0 
 23 19  1  6  0  0  0 
 23 24  1  1  0  0  0 
 24 25  1  0  0  0  0 
 25 26  1  0  0  0  0 
 16 26  1  1  0  0  0 
 26 27  1  0  0  0  0 
 27 28  1  0  0  0  0 
 28 29  1  0  0  0  0 
 29 30  1  0  0  0  0 
 28 30  1  0  0  0  0 
 20 31  2  0  0  0  0 
 31 32  1  0  0  0  0 
 31 33  1  0  0  0  0 
 33 34  2  0  0  0  0 
 18 34  1  0  0  0  0 
M  END
> <SMILES>
CO[C@]12CC[C@@]3(C[C@@H]1[C@](C)(O)C(C)(C)C)[C@H]1CC4=C5C(O[C@@H]2[C@@]35CCN1CC1CC1)=C(O)C=C4

$$$$

  CDK     06141809482D

 21 24  0  0  0  0  0  0  0  0999 V2000
   -4.8970    0.6514    0.0000 C   0  0  0  0  0  0  0  0  0  0  0  0
   -3.5979   -0.0986    0.0000 N   0  0  0  0  0  0  0  0  0  0  0  0
   -2.2989    0.6514    0.0000 C   0  0  0  0  0  0  0  0  0  0  0  0
   -0.9998   -0.0986    0.0000 C   0  0  0  0  0  0  0  0  0  0  0  0
    0.2992    0.6514    0.0000 C   0  0  0  0  0  0  0  0  0  0  0  0
    1.5982   -0.0986    0.0000 C   0  0  0  0  0  0  0  0  0  0  0  0
    2.8973    0.6514    0.0000 C   0  0  0  0  0  0  0  0  0  0  0  0
    4.1963   -0.0986    0.0000 C   0  0  0  0  0  0  0  0  0  0  0  0
    4.1963   -1.5986    0.0000 C   0  0  0  0  0  0  0  0  0  0  0  0
    5.4412    1.3155    0.0000 C   0  0  0  0  0  0  0  0  0  0  0  0
    6.4952    2.4024    0.0000 C   0  0  0  0  0  0  0  0  0  0  0  0
    6.3897    3.7995    0.0000 C   0  0  0  0  0  0  0  0  0  0  0  0
    5.1764    4.5000    0.0000 C   0  0  0  0  0  0  0  0  0  0  0  0
    3.9137    3.8928    0.0000 C   0  0  0  0  0  0  0  0  0  0  0  0
    3.4995    2.4366    0.0000 C   0  0  0  0  0  0  0  0  0  0  0  0
    2.8973   -2.3486    0.0000 C   0  0  0  0  0  0  0  0  0  0  0  0
    2.8973   -3.8486    0.0000 C   0  0  0  0  0  0  0  0  0  0  0  0
    1.5982   -4.5986    0.0000 C   0  0  0  0  0  0  0  0  0  0  0  0
    0.2992   -3.8486    0.0000 C   0  0  0  0  0  0  0  0  0  0  0  0
    0.2992   -2.3486    0.0000 C   0  0  0  0  0  0  0  0  0  0  0  0
    1.5982   -1.5986    0.0000 C   0  0  0  0  0  0  0  0  0  0  0  0
  1  2  1  0  0  0  0 
  2  3  1  0  0  0  0 
  3  4  1  0  0  0  0 
  4  5  1  0  0  0  0 
  5  6  1  0  0  0  0 
  6  7  1  0  0  0  0 
  7  8  1  0  0  0  0 
  8  9  1  0  0  0  0 
  9 10  1  0  0  0  0 
 10 11  2  0  0  0  0 
 11 12  1  0  0  0  0 
 12 13  2  0  0  0  0 
 13 14  1  0  0  0  0 
 14 15  2  0  0  0  0 
  6 15  1  0  0  0  0 
 10 15  1  0  0  0  0 
  9 16  1  0  0  0  0 
 16 17  2  0  0  0  0 
 17 18  1  0  0  0  0 
 18 19  2  0  0  0  0 
 19 20  1  0  0  0  0 
 20 21  2  0  0  0  0 
  6 21  1  0  0  0  0 
 16 21  1  0  0  0  0 
M  END
> <SMILES>
CNCCCC12CCC(C3=CC=CC=C13)C1=CC=CC=C21

$$$$

  CDK     06141809482D

 10 10  0  0  0  0  0  0  0  0999 V2000
   -0.6506   -1.5002    0.0000 O   0  0  0  0  0  0  0  0  0  0  0  0
   -0.6508   -0.0002    0.0000 C   0  0  0  0  0  0  0  0  0  0  0  0
   -1.9500    0.7496    0.0000 O   0  0  0  0  0  0  0  0  0  0  0  0
    0.6481    0.7500    0.0000 C   0  0  0  0  0  0  0  0  0  0  0  0
    1.9481   -0.0000    0.0000 C   0  0  0  0  0  0  0  0  0  0  0  0
    3.2481    0.7500    0.0000 C   0  0  0  0  0  0  0  0  0  0  0  0
    3.2481    2.2500    0.0000 C   0  0  0  0  0  0  0  0  0  0  0  0
    1.9481    3.0000    0.0000 C   0  0  0  0  0  0  0  0  0  0  0  0
    0.6481    2.2500    0.0000 C   0  0  0  0  0  0  0  0  0  0  0  0
   -0.6508    3.0002    0.0000 O   0  0  0  0  0  0  0  0  0  0  0  0
  1  2  1  0  0  0  0 
  2  3  2  0  0  0  0 
  2  4  1  0  0  0  0 
  4  5  2  0  0  0  0 
  5  6  1  0  0  0  0 
  6  7  2  0  0  0  0 
  7  8  1  0  0  0  0 
  8  9  2  0  0  0  0 
  4  9  1  0  0  0  0 
  9 10  1  0  0  0  0 
M  END
> <SMILES>
OC(=O)C1=CC=CC=C1O

$$$$

  CDK     06141809482D

 13 13  0  0  0  0  0  0  0  0999 V2000
   -3.5733   -0.9379    0.0000 C   0  0  0  0  0  0  0  0  0  0  0  0
   -2.2742   -0.1881    0.0000 C   0  0  0  0  0  0  0  0  0  0  0  0
   -2.2739    1.3119    0.0000 O   0  0  0  0  0  0  0  0  0  0  0  0
   -0.9753   -0.9383    0.0000 O   0  0  0  0  0  0  0  0  0  0  0  0
    0.3239   -0.1885    0.0000 C   0  0  0  0  0  0  0  0  0  0  0  0
    0.3244    1.3123    0.0000 C   0  0  0  0  0  0  0  0  0  0  0  0
    1.6239    2.0632    0.0000 C   0  0  0  0  0  0  0  0  0  0  0  0
    2.9229    1.3132    0.0000 C   0  0  0  0  0  0  0  0  0  0  0  0
    2.9224   -0.1877    0.0000 C   0  0  0  0  0  0  0  0  0  0  0  0
    1.6229   -0.9385    0.0000 C   0  0  0  0  0  0  0  0  0  0  0  0
    1.6232   -2.4385    0.0000 C   0  0  0  0  0  0  0  0  0  0  0  0
    2.9223   -3.1883    0.0000 O   0  0  0  0  0  0  0  0  0  0  0  0
    0.3242   -3.1887    0.0000 O   0  0  0  0  0  0  0  0  0  0  0  0
  1  2  1  0  0  0  0 
  2  3  2  0  0  0  0 
  2  4  1  0  0  0  0 
  4  5  1  0  0  0  0 
  5  6  2  0  0  0  0 
  6  7  1  0  0  0  0 
  7  8  2  0  0  0  0 
  8  9  1  0  0  0  0 
  9 10  2  0  0  0  0 
  5 10  1  0  0  0  0 
 10 11  1  0  0  0  0 
 11 12  1  0  0  0  0 
 11 13  2  0  0  0  0 
M  END
> <SMILES>
CC(=O)OC1=CC=CC=C1C(O)=O

$$$$

  CDK     06141809482D

 30 33  0  0  1  0  0  0  0  0999 V2000
    1.1395    0.5604    0.0000 H   0  0  0  0  0  0  0  0  0  0  0  0
    2.3550   -0.3186    0.0000 C   0  0  2  0  0  0  0  0  0  0  0  0
    3.7750   -0.7886    0.0000 C   0  0  0  0  0  0  0  0  0  0  0  0
    4.6550    0.4314    0.0000 C   0  0  0  0  0  0  0  0  0  0  0  0
    3.7750    1.6414    0.0000 C   0  0  2  0  0  0  0  0  0  0  0  0
    5.0741    2.3914    0.0000 O   0  0  0  0  0  0  0  0  0  0  0  0
    2.9705    3.4506    0.0000 C   0  0  0  0  0  0  0  0  0  0  0  0
    1.4788    3.6080    0.0000 O   0  0  0  0  0  0  0  0  0  0  0  0
    3.8527    4.6637    0.0000 C   0  0  0  0  0  0  0  0  0  0  0  0
    5.3444    4.5063    0.0000 O   0  0  0  0  0  0  0  0  0  0  0  0
    2.3550    1.1814    0.0000 C   0  0  2  0  0  0  0  0  0  0  0  0
    2.5123    2.6732    0.0000 C   0  0  0  0  0  0  0  0  0  0  0  0
    1.0550    1.9314    0.0000 C   0  0  0  0  0  0  0  0  0  0  0  0
   -0.2450    1.1814    0.0000 C   0  0  2  0  0  0  0  0  0  0  0  0
   -1.5439    1.9316    0.0000 O   0  0  0  0  0  0  0  0  0  0  0  0
   -0.2450   -0.3186    0.0000 C   0  0  1  0  0  0  0  0  0  0  0  0
   -0.2457   -1.8186    0.0000 H   0  0  0  0  0  0  0  0  0  0  0  0
    1.0550   -1.0686    0.0000 C   0  0  1  0  0  0  0  0  0  0  0  0
    2.3540   -1.8188    0.0000 H   0  0  0  0  0  0  0  0  0  0  0  0
    1.0550   -2.5686    0.0000 C   0  0  0  0  0  0  0  0  0  0  0  0
   -0.2450   -3.3186    0.0000 C   0  0  2  0  0  0  0  0  0  0  0  0
   -0.2450   -4.8186    0.0000 C   0  0  0  0  0  0  0  0  0  0  0  0
   -1.5450   -2.5686    0.0000 C   0  0  0  0  0  0  0  0  0  0  0  0
   -2.8450   -3.3186    0.0000 C   0  0  0  0  0  0  0  0  0  0  0  0
   -4.1450   -2.5686    0.0000 C   0  0  0  0  0  0  0  0  0  0  0  0
   -5.4439   -3.3188    0.0000 O   0  0  0  0  0  0  0  0  0  0  0  0
   -4.1450   -1.0686    0.0000 C   0  0  0  0  0  0  0  0  0  0  0  0
   -2.8450   -0.3186    0.0000 C   0  0  0  0  0  0  0  0  0  0  0  0
   -1.5450   -1.0686    0.0000 C   0  0  2  0  0  0  0  0  0  0  0  0
   -1.5450    0.4314    0.0000 C   0  0  0  0  0  0  0  0  0  0  0  0
  2  1  1  6  0  0  0 
  2  3  1  0  0  0  0 
  3  4  1  0  0  0  0 
  4  5  1  0  0  0  0 
  5  6  1  6  0  0  0 
  5  7  1  1  0  0  0 
  7  8  2  0  0  0  0 
  7  9  1  0  0  0  0 
  9 10  1  0  0  0  0 
  5 11  1  0  0  0  0 
  2 11  1  0  0  0  0 
 11 12  1  1  0  0  0 
 11 13  1  0  0  0  0 
 13 14  1  0  0  0  0 
 14 15  1  1  0  0  0 
 14 16  1  0  0  0  0 
 16 17  1  6  0  0  0 
 16 18  1  0  0  0  0 
  2 18  1  0  0  0  0 
 18 19  1  1  0  0  0 
 18 20  1  0  0  0  0 
 20 21  1  0  0  0  0 
 21 22  1  6  0  0  0 
 21 23  1  0  0  0  0 
 23 24  2  0  0  0  0 
 24 25  1  0  0  0  0 
 25 26  2  0  0  0  0 
 25 27  1  0  0  0  0 
 27 28  2  0  0  0  0 
 28 29  1  0  0  0  0 
 16 29  1  0  0  0  0 
 23 29  1  0  0  0  0 
 29 30  1  1  0  0  0 
M  END
> <SMILES>
[H][C@@]12CC[C@](O)(C(=O)CO)[C@@]1(C)C[C@H](O)[C@@]1([H])[C@@]2([H])C[C@H](C)C2=CC(=O)C=C[C@]12C

$$$$

  CDK     06141809482D

 39 44  0  0  0  0  0  0  0  0999 V2000
    6.3500   -1.2990    0.0000 C   0  0  0  0  0  0  0  0  0  0  0  0
    4.8500   -1.2990    0.0000 C   0  0  0  0  0  0  0  0  0  0  0  0
    4.1000   -0.0000    0.0000 C   0  0  0  0  0  0  0  0  0  0  0  0
    2.6000    0.0000    0.0000 C   0  0  0  0  0  0  0  0  0  0  0  0
    1.7200   -1.2100    0.0000 N   0  0  0  0  0  0  0  0  0  0  0  0
    0.2900   -0.7500    0.0000 C   0  0  0  0  0  0  0  0  0  0  0  0
    0.2900    0.7500    0.0000 C   0  0  0  0  0  0  0  0  0  0  0  0
   -1.0100    1.5000    0.0000 C   0  0  0  0  0  0  0  0  0  0  0  0
   -2.3100    0.7500    0.0000 C   0  0  0  0  0  0  0  0  0  0  0  0
   -2.3100   -0.7500    0.0000 C   0  0  0  0  0  0  0  0  0  0  0  0
   -1.0100   -1.5000    0.0000 C   0  0  0  0  0  0  0  0  0  0  0  0
   -1.0100   -3.0000    0.0000 C   0  0  0  0  0  0  0  0  0  0  0  0
   -3.6089    1.5002    0.0000 C   0  0  0  0  0  0  0  0  0  0  0  0
   -4.9761    0.8925    0.0000 N   0  0  0  0  0  0  0  0  0  0  0  0
   -5.9844    2.0061    0.0000 C   0  0  0  0  0  0  0  0  0  0  0  0
   -7.4852    2.0068    0.0000 C   0  0  0  0  0  0  0  0  0  0  0  0
   -8.2358    3.3064    0.0000 C   0  0  0  0  0  0  0  0  0  0  0  0
   -7.4856    4.6053    0.0000 C   0  0  0  0  0  0  0  0  0  0  0  0
   -5.9848    4.6046    0.0000 C   0  0  0  0  0  0  0  0  0  0  0  0
   -5.2341    3.3050    0.0000 C   0  0  0  0  0  0  0  0  0  0  0  0
   -3.7658    2.9881    0.0000 N   0  0  0  0  0  0  0  0  0  0  0  0
   -2.6497    3.9903    0.0000 C   0  0  0  0  0  0  0  0  0  0  0  0
    1.7200    1.2100    0.0000 N   0  0  0  0  0  0  0  0  0  0  0  0
    2.1853    2.6360    0.0000 C   0  0  0  0  0  0  0  0  0  0  0  0
    3.6529    2.9461    0.0000 C   0  0  0  0  0  0  0  0  0  0  0  0
    4.6079    1.8561    0.0000 C   0  0  0  0  0  0  0  0  0  0  0  0
    6.0669    2.1047    0.0000 C   0  0  0  0  0  0  0  0  0  0  0  0
    6.5141    3.5347    0.0000 C   0  0  0  0  0  0  0  0  0  0  0  0
    5.5591    4.6247    0.0000 C   0  0  0  0  0  0  0  0  0  0  0  0
    4.1000    4.3761    0.0000 C   0  0  0  0  0  0  0  0  0  0  0  0
    7.9817    3.8448    0.0000 C   0  0  0  0  0  0  0  0  0  0  0  0
    8.9803    2.7360    0.0000 C   0  0  0  0  0  0  0  0  0  0  0  0
   10.4484    3.0436    0.0000 C   0  0  0  0  0  0  0  0  0  0  0  0
   10.9179    4.4600    0.0000 C   0  0  0  0  0  0  0  0  0  0  0  0
    9.9172    5.5786    0.0000 C   0  0  0  0  0  0  0  0  0  0  0  0
    8.4491    5.2710    0.0000 C   0  0  0  0  0  0  0  0  0  0  0  0
    7.4485    6.3884    0.0000 C   0  0  0  0  0  0  0  0  0  0  0  0
    7.9159    7.8137    0.0000 O   0  0  0  0  0  0  0  0  0  0  0  0
    5.9804    6.0806    0.0000 O   0  0  0  0  0  0  0  0  0  0  0  0
  1  2  1  0  0  0  0 
  2  3  1  0  0  0  0 
  3  4  1  0  0  0  0 
  4  5  2  0  0  0  0 
  5  6  1  0  0  0  0 
  6  7  2  0  0  0  0 
  7  8  1  0  0  0  0 
  8  9  2  0  0  0  0 
  9 10  1  0  0  0  0 
 10 11  2  0  0  0  0 
  6 11  1  0  0  0  0 
 11 12  1  0  0  0  0 
  9 13  1  0  0  0  0 
 13 14  2  0  0  0  0 
 14 15  1  0  0  0  0 
 15 16  2  0  0  0  0 
 16 17  1  0  0  0  0 
 17 18  2  0  0  0  0 
 18 19  1  0  0  0  0 
 19 20  2  0  0  0  0 
 15 20  1  0  0  0  0 
 20 21  1  0  0  0  0 
 13 21  1  0  0  0  0 
 21 22  1  0  0  0  0 
  7 23  1  0  0  0  0 
  4 23  1  0  0  0  0 
 23 24  1  0  0  0  0 
 24 25  1  0  0  0  0 
 25 26  2  0  0  0  0 
 26 27  1  0  0  0  0 
 27 28  2  0  0  0  0 
 28 29  1  0  0  0  0 
 29 30  2  0  0  0  0 
 25 30  1  0  0  0  0 
 28 31  1  0  0  0  0 
 31 32  2  0  0  0  0 
 32 33  1  0  0  0  0 
 33 34  2  0  0  0  0 
 34 35  1  0  0  0  0 
 35 36  2  0  0  0  0 
 31 36  1  0  0  0  0 
 36 37  1  0  0  0  0 
 37 38  1  0  0  0  0 
 37 39  2  0  0  0  0 
M  END
> <SMILES>
CCCC1=NC2=C(C=C(C=C2C)C2=NC3=CC=CC=C3N2C)N1CC1=CC=C(C=C1)C1=CC=CC=C1C(O)=O

$$$$

  CDK     06141809482D

 22 25  0  0  0  0  0  0  0  0999 V2000
    5.6543   -0.6592    0.0000 Cl  0  0  0  0  0  0  0  0  0  0  0  0
    4.2200   -0.2200    0.0000 C   0  0  0  0  0  0  0  0  0  0  0  0
    3.1200   -1.2400    0.0000 C   0  0  0  0  0  0  0  0  0  0  0  0
    1.6900   -0.8000    0.0000 C   0  0  0  0  0  0  0  0  0  0  0  0
    1.3500    0.6600    0.0000 C   0  0  0  0  0  0  0  0  0  0  0  0
    2.4500    1.6800    0.0000 C   0  0  0  0  0  0  0  0  0  0  0  0
    3.8800    1.2400    0.0000 C   0  0  0  0  0  0  0  0  0  0  0  0
    0.0000    1.3100    0.0000 C   0  0  0  0  0  0  0  0  0  0  0  0
    0.0000    2.8100    0.0000 C   0  0  0  0  0  0  0  0  0  0  0  0
   -1.3000    3.5600    0.0000 C   0  0  0  0  0  0  0  0  0  0  0  0
   -1.3000    5.0600    0.0000 C   0  0  0  0  0  0  0  0  0  0  0  0
   -0.0000    5.8100    0.0000 N   0  0  0  0  0  0  0  0  0  0  0  0
    1.3000    5.0600    0.0000 C   0  0  0  0  0  0  0  0  0  0  0  0
    1.3000    3.5600    0.0000 C   0  0  0  0  0  0  0  0  0  0  0  0
   -1.3500    0.6600    0.0000 C   0  0  0  0  0  0  0  0  0  0  0  0
   -1.6900   -0.8000    0.0000 C   0  0  0  0  0  0  0  0  0  0  0  0
   -0.7500   -1.9700    0.0000 C   0  0  0  0  0  0  0  0  0  0  0  0
    0.7500   -1.9700    0.0000 C   0  0  0  0  0  0  0  0  0  0  0  0
   -3.1200   -1.2400    0.0000 C   0  0  0  0  0  0  0  0  0  0  0  0
   -4.2200   -0.2200    0.0000 C   0  0  0  0  0  0  0  0  0  0  0  0
   -3.8800    1.2400    0.0000 C   0  0  0  0  0  0  0  0  0  0  0  0
   -2.4500    1.6800    0.0000 N   0  0  0  0  0  0  0  0  0  0  0  0
  1  2  1  0  0  0  0 
  2  3  2  0  0  0  0 
  3  4  1  0  0  0  0 
  4  5  2  0  0  0  0 
  5  6  1  0  0  0  0 
  6  7  2  0  0  0  0 
  2  7  1  0  0  0  0 
  5  8  1  0  0  0  0 
  8  9  2  0  0  0  0 
  9 10  1  4  0  0  0 
 10 11  1  0  0  0  0 
 11 12  1  0  0  0  0 
 12 13  1  0  0  0  0 
 13 14  1  0  0  0  0 
  9 14  1  0  0  0  0 
  8 15  1  0  0  0  0 
 15 16  2  0  0  0  0 
 16 17  1  0  0  0  0 
 17 18  1  0  0  0  0 
  4 18  1  0  0  0  0 
 16 19  1  0  0  0  0 
 19 20  2  0  0  0  0 
 20 21  1  0  0  0  0 
 21 22  2  0  0  0  0 
 15 22  1  0  0  0  0 
M  END
> <SMILES>
ClC1=CC2=C(C=C1)C(=C1CCNCC1)C1=C(CC2)C=CC=N1

$$$$

  CDK     06141809482D

 27 30  0  0  0  0  0  0  0  0999 V2000
    8.6173    2.6154    0.0000 C   0  0  0  0  0  0  0  0  0  0  0  0
    7.1217    2.5003    0.0000 N   0  0  0  0  0  0  0  0  0  0  0  0
    6.3701    3.7965    0.0000 C   0  0  0  0  0  0  0  0  0  0  0  0
    4.8783    4.0228    0.0000 C   0  0  0  0  0  0  0  0  0  0  0  0
    3.7839    2.9958    0.0000 C   0  0  0  0  0  0  0  0  0  0  0  0
    3.8989    1.5002    0.0000 C   0  0  0  0  0  0  0  0  0  0  0  0
    5.1376    0.6527    0.0000 C   0  0  0  0  0  0  0  0  0  0  0  0
    6.5772    1.1045    0.0000 C   0  0  0  0  0  0  0  0  0  0  0  0
    2.6000    0.7500    0.0000 N   0  0  0  0  0  0  0  0  0  0  0  0
    2.6000   -0.7500    0.0000 N   0  0  0  0  0  0  0  0  0  0  0  0
    1.3000   -1.5000    0.0000 C   0  0  0  0  0  0  0  0  0  0  0  0
    1.3000   -3.0000    0.0000 C   0  0  0  0  0  0  0  0  0  0  0  0
    0.0010   -3.7500    0.0000 C   0  0  0  0  0  0  0  0  0  0  0  0
   -1.2849   -3.0100    0.0000 C   0  0  0  0  0  0  0  0  0  0  0  0
   -2.5876   -3.7535    0.0000 C   0  0  0  0  0  0  0  0  0  0  0  0
   -2.6133   -5.2419    0.0000 C   0  0  0  0  0  0  0  0  0  0  0  0
   -3.9198   -5.9788    0.0000 Cl  0  0  0  0  0  0  0  0  0  0  0  0
   -1.3039   -6.0030    0.0000 C   0  0  0  0  0  0  0  0  0  0  0  0
   -0.0011   -5.2595    0.0000 C   0  0  0  0  0  0  0  0  0  0  0  0
   -0.0000   -0.7500    0.0000 C   0  0  0  0  0  0  0  0  0  0  0  0
   -1.3000   -1.5000    0.0000 C   0  0  0  0  0  0  0  0  0  0  0  0
   -2.6000   -0.7500    0.0000 C   0  0  0  0  0  0  0  0  0  0  0  0
   -2.6000    0.7500    0.0000 C   0  0  0  0  0  0  0  0  0  0  0  0
   -1.3000    1.5000    0.0000 C   0  0  0  0  0  0  0  0  0  0  0  0
   -0.0000    0.7500    0.0000 C   0  0  0  0  0  0  0  0  0  0  0  0
    1.3000    1.5000    0.0000 C   0  0  0  0  0  0  0  0  0  0  0  0
    1.3000    3.0000    0.0000 O   0  0  0  0  0  0  0  0  0  0  0  0
  1  2  1  0  0  0  0 
  2  3  1  0  0  0  0 
  3  4  1  0  0  0  0 
  4  5  1  0  0  0  0 
  5  6  1  0  0  0  0 
  6  7  1  0  0  0  0 
  7  8  1  0  0  0  0 
  2  8  1  0  0  0  0 
  6  9  1  0  0  0  0 
  9 10  1  0  0  0  0 
 10 11  2  0  0  0  0 
 11 12  1  0  0  0  0 
 12 13  1  0  0  0  0 
 13 14  2  0  0  0  0 
 14 15  1  0  0  0  0 
 15 16  2  0  0  0  0 
 16 17  1  0  0  0  0 
 16 18  1  0  0  0  0 
 18 19  2  0  0  0  0 
 13 19  1  0  0  0  0 
 11 20  1  0  0  0  0 
 20 21  2  0  0  0  0 
 21 22  1  0  0  0  0 
 22 23  2  0  0  0  0 
 23 24  1  0  0  0  0 
 24 25  2  0  0  0  0 
 20 25  1  0  0  0  0 
 25 26  1  0  0  0  0 
  9 26  1  0  0  0  0 
 26 27  2  0  0  0  0 
M  END
> <SMILES>
CN1CCCC(CC1)N1N=C(CC2=CC=C(Cl)C=C2)C2=CC=CC=C2C1=O

$$$$

  CDK     06141809482D

 30 33  0  0  1  0  0  0  0  0999 V2000
    1.9159   -7.0388    0.0000 O   0  0  0  0  0  0  0  0  0  0  0  0
    2.3041   -5.5899    0.0000 C   0  0  1  0  0  0  0  0  0  0  0  0
    1.2435   -4.5293    0.0000 C   0  0  0  0  0  0  0  0  0  0  0  0
   -0.2054   -4.9175    0.0000 C   0  0  0  0  0  0  0  0  0  0  0  0
   -1.2661   -3.8568    0.0000 C   0  0  2  0  0  0  0  0  0  0  0  0
   -1.2661   -2.3568    0.0000 C   0  0  2  0  0  0  0  0  0  0  0  0
   -2.7661   -2.3568    0.0000 N   0  0  0  0  0  0  0  0  0  0  0  0
   -2.7661   -3.8568    0.0000 C   0  0  0  0  0  0  0  0  0  0  0  0
   -3.8267   -4.9175    0.0000 O   0  0  0  0  0  0  0  0  0  0  0  0
   -3.8267   -1.2962    0.0000 C   0  0  0  0  0  0  0  0  0  0  0  0
   -5.2765   -1.6844    0.0000 C   0  0  0  0  0  0  0  0  0  0  0  0
   -6.3383   -0.6236    0.0000 C   0  0  0  0  0  0  0  0  0  0  0  0
   -5.9503    0.8253    0.0000 C   0  0  0  0  0  0  0  0  0  0  0  0
   -7.0109    1.8860    0.0000 F   0  0  0  0  0  0  0  0  0  0  0  0
   -4.5005    1.2135    0.0000 C   0  0  0  0  0  0  0  0  0  0  0  0
   -3.4388    0.1528    0.0000 C   0  0  0  0  0  0  0  0  0  0  0  0
   -0.2054   -1.2962    0.0000 C   0  0  0  0  0  0  0  0  0  0  0  0
   -0.6008    0.1508    0.0000 C   0  0  0  0  0  0  0  0  0  0  0  0
    0.4266    1.2090    0.0000 C   0  0  0  0  0  0  0  0  0  0  0  0
    1.9266    0.8414    0.0000 C   0  0  0  0  0  0  0  0  0  0  0  0
    2.9732    1.9159    0.0000 O   0  0  0  0  0  0  0  0  0  0  0  0
    2.3219   -0.6056    0.0000 C   0  0  0  0  0  0  0  0  0  0  0  0
    1.2173   -1.6849    0.0000 C   0  0  0  0  0  0  0  0  0  0  0  0
    3.7530   -5.2017    0.0000 C   0  0  0  0  0  0  0  0  0  0  0  0
    4.1415   -3.7529    0.0000 C   0  0  0  0  0  0  0  0  0  0  0  0
    5.5914   -3.3651    0.0000 C   0  0  0  0  0  0  0  0  0  0  0  0
    6.6528   -4.4262    0.0000 C   0  0  0  0  0  0  0  0  0  0  0  0
    8.1017   -4.0380    0.0000 F   0  0  0  0  0  0  0  0  0  0  0  0
    6.2643   -5.8750    0.0000 C   0  0  0  0  0  0  0  0  0  0  0  0
    4.8144   -6.2628    0.0000 C   0  0  0  0  0  0  0  0  0  0  0  0
  2  1  1  1  0  0  0 
  2  3  1  0  0  0  0 
  3  4  1  0  0  0  0 
  5  4  1  1  0  0  0 
  5  6  1  0  0  0  0 
  6  7  1  0  0  0  0 
  7  8  1  0  0  0  0 
  5  8  1  0  0  0  0 
  8  9  2  0  0  0  0 
  7 10  1  0  0  0  0 
 10 11  2  0  0  0  0 
 11 12  1  0  0  0  0 
 12 13  2  0  0  0  0 
 13 14  1  0  0  0  0 
 13 15  1  0  0  0  0 
 15 16  2  0  0  0  0 
 10 16  1  0  0  0  0 
  6 17  1  6  0  0  0 
 17 18  2  0  0  0  0 
 18 19  1  0  0  0  0 
 19 20  2  0  0  0  0 
 20 21  1  0  0  0  0 
 20 22  1  0  0  0  0 
 22 23  2  0  0  0  0 
 17 23  1  0  0  0  0 
  2 24  1  0  0  0  0 
 24 25  2  0  0  0  0 
 25 26  1  0  0  0  0 
 26 27  2  0  0  0  0 
 27 28  1  0  0  0  0 
 27 29  1  0  0  0  0 
 29 30  2  0  0  0  0 
 24 30  1  0  0  0  0 
M  END
> <SMILES>
O[C@@H](CC[C@@H]1[C@H](N(C1=O)C1=CC=C(F)C=C1)C1=CC=C(O)C=C1)C1=CC=C(F)C=C1

$$$$

  CDK     06141809482D

 25 28  0  0  1  0  0  0  0  0999 V2000
    0.9539    0.5058    0.0000 H   0  0  0  0  0  0  0  0  0  0  0  0
    2.1657   -0.3783    0.0000 C   0  0  2  0  0  0  0  0  0  0  0  0
    3.5957   -0.8383    0.0000 C   0  0  0  0  0  0  0  0  0  0  0  0
    4.4757    0.3717    0.0000 C   0  0  0  0  0  0  0  0  0  0  0  0
    3.5957    1.5917    0.0000 C   0  0  1  0  0  0  0  0  0  0  0  0
    4.8956    2.3402    0.0000 O   0  0  0  0  0  0  0  0  0  0  0  0
    2.7884    3.3996    0.0000 C   0  0  0  0  0  0  0  0  0  0  0  0
    2.1767    4.7693    0.0000 C   0  0  0  0  0  0  0  0  0  0  0  0
    2.1657    1.1217    0.0000 C   0  0  2  0  0  0  0  0  0  0  0  0
    2.3197    2.6138    0.0000 C   0  0  0  0  0  0  0  0  0  0  0  0
    0.8657    1.8717    0.0000 C   0  0  0  0  0  0  0  0  0  0  0  0
   -0.4343    1.1217    0.0000 C   0  0  0  0  0  0  0  0  0  0  0  0
   -0.4343   -0.3783    0.0000 C   0  0  2  0  0  0  0  0  0  0  0  0
   -1.7332    0.3719    0.0000 H   0  0  0  0  0  0  0  0  0  0  0  0
   -1.7343   -1.1283    0.0000 C   0  0  0  0  0  0  0  0  0  0  0  0
   -1.7343   -2.6283    0.0000 C   0  0  0  0  0  0  0  0  0  0  0  0
   -0.4343   -3.3783    0.0000 C   0  0  0  0  0  0  0  0  0  0  0  0
    0.8657   -2.6283    0.0000 C   0  0  0  0  0  0  0  0  0  0  0  0
    0.8657   -1.1283    0.0000 C   0  0  1  0  0  0  0  0  0  0  0  0
    2.1646   -1.8785    0.0000 H   0  0  0  0  0  0  0  0  0  0  0  0
   -3.0343   -3.3783    0.0000 C   0  0  0  0  0  0  0  0  0  0  0  0
   -4.3343   -2.6283    0.0000 C   0  0  0  0  0  0  0  0  0  0  0  0
   -5.6332   -3.3785    0.0000 O   0  0  0  0  0  0  0  0  0  0  0  0
   -4.3343   -1.1283    0.0000 C   0  0  0  0  0  0  0  0  0  0  0  0
   -3.0343   -0.3783    0.0000 C   0  0  0  0  0  0  0  0  0  0  0  0
  2  1  1  6  0  0  0 
  2  3  1  0  0  0  0 
  3  4  1  0  0  0  0 
  4  5  1  0  0  0  0 
  5  6  1  1  0  0  0 
  5  7  1  6  0  0  0 
  7  8  3  0  0  0  0 
  5  9  1  0  0  0  0 
  2  9  1  0  0  0  0 
  9 10  1  1  0  0  0 
  9 11  1  0  0  0  0 
 11 12  1  0  0  0  0 
 12 13  1  0  0  0  0 
 13 14  1  6  0  0  0 
 13 15  1  0  0  0  0 
 15 16  2  0  0  0  0 
 16 17  1  0  0  0  0 
 17 18  1  0  0  0  0 
 18 19  1  0  0  0  0 
  2 19  1  0  0  0  0 
 13 19  1  0  0  0  0 
 19 20  1  1  0  0  0 
 16 21  1  0  0  0  0 
 21 22  2  0  0  0  0 
 22 23  1  0  0  0  0 
 22 24  1  0  0  0  0 
 24 25  2  0  0  0  0 
 15 25  1  0  0  0  0 
M  END
> <SMILES>
[H][C@@]12CC[C@@](O)(C#C)[C@@]1(C)CC[C@]1([H])C3=C(CC[C@@]21[H])C=C(O)C=C3

$$$$

  CDK     06141809482D

 33 35  0  0  0  0  0  0  0  0999 V2000
    9.5501    3.8029    0.0000 C   0  0  0  0  0  0  0  0  0  0  0  0
    8.8003    5.1021    0.0000 O   0  0  0  0  0  0  0  0  0  0  0  0
    9.5505    6.4010    0.0000 C   0  0  0  0  0  0  0  0  0  0  0  0
    8.8005    7.7010    0.0000 C   0  0  0  0  0  0  0  0  0  0  0  0
    9.5505    9.0010    0.0000 C   0  0  0  0  0  0  0  0  0  0  0  0
   11.0505    9.0010    0.0000 C   0  0  0  0  0  0  0  0  0  0  0  0
   11.8007   10.2999    0.0000 Cl  0  0  0  0  0  0  0  0  0  0  0  0
   11.8005    7.7010    0.0000 C   0  0  0  0  0  0  0  0  0  0  0  0
   11.0505    6.4010    0.0000 C   0  0  0  0  0  0  0  0  0  0  0  0
    7.3005    7.7010    0.0000 C   0  0  0  0  0  0  0  0  0  0  0  0
    6.5505    6.4019    0.0000 O   0  0  0  0  0  0  0  0  0  0  0  0
    6.5505    9.0000    0.0000 N   0  0  0  0  0  0  0  0  0  0  0  0
    5.0505    9.0000    0.0000 C   0  0  0  0  0  0  0  0  0  0  0  0
    4.3005   10.2990    0.0000 C   0  0  0  0  0  0  0  0  0  0  0  0
    2.8005   10.2990    0.0000 C   0  0  0  0  0  0  0  0  0  0  0  0
    2.0499   11.5987    0.0000 C   0  0  0  0  0  0  0  0  0  0  0  0
    0.5490   11.5994    0.0000 C   0  0  0  0  0  0  0  0  0  0  0  0
   -0.2012   10.3005    0.0000 C   0  0  0  0  0  0  0  0  0  0  0  0
    0.5494    9.0008    0.0000 C   0  0  0  0  0  0  0  0  0  0  0  0
    2.0503    9.0001    0.0000 C   0  0  0  0  0  0  0  0  0  0  0  0
   -1.7012   10.3005    0.0000 S   0  0  0  0  0  0  0  0  0  0  0  0
   -3.1107    9.7875    0.0000 O   0  0  0  0  0  0  0  0  0  0  0  0
   -1.4407    8.8233    0.0000 O   0  0  0  0  0  0  0  0  0  0  0  0
   -2.4512   11.5995    0.0000 N   0  0  0  0  0  0  0  0  0  0  0  0
   -3.9512   11.5995    0.0000 C   0  0  0  0  0  0  0  0  0  0  0  0
   -4.7012   10.3005    0.0000 O   0  0  0  0  0  0  0  0  0  0  0  0
   -4.7012   12.8986    0.0000 N   0  0  0  0  0  0  0  0  0  0  0  0
   -6.2012   12.8986    0.0000 C   0  0  0  0  0  0  0  0  0  0  0  0
   -6.9512   14.1986    0.0000 C   0  0  0  0  0  0  0  0  0  0  0  0
   -8.4512   14.1986    0.0000 C   0  0  0  0  0  0  0  0  0  0  0  0
   -9.2012   12.8986    0.0000 C   0  0  0  0  0  0  0  0  0  0  0  0
   -8.4512   11.5986    0.0000 C   0  0  0  0  0  0  0  0  0  0  0  0
   -6.9512   11.5986    0.0000 C   0  0  0  0  0  0  0  0  0  0  0  0
  1  2  1  0  0  0  0 
  2  3  1  0  0  0  0 
  3  4  2  0  0  0  0 
  4  5  1  0  0  0  0 
  5  6  2  0  0  0  0 
  6  7  1  0  0  0  0 
  6  8  1  0  0  0  0 
  8  9  2  0  0  0  0 
  3  9  1  0  0  0  0 
  4 10  1  0  0  0  0 
 10 11  2  0  0  0  0 
 10 12  1  0  0  0  0 
 12 13  1  0  0  0  0 
 13 14  1  0  0  0  0 
 14 15  1  0  0  0  0 
 15 16  2  0  0  0  0 
 16 17  1  0  0  0  0 
 17 18  2  0  0  0  0 
 18 19  1  0  0  0  0 
 19 20  2  0  0  0  0 
 15 20  1  0  0  0  0 
 18 21  1  0  0  0  0 
 21 22  2  0  0  0  0 
 21 23  2  0  0  0  0 
 21 24  1  0  0  0  0 
 24 25  1  0  0  0  0 
 25 26  2  0  0  0  0 
 25 27  1  0  0  0  0 
 27 28  1  0  0  0  0 
 28 29  1  0  0  0  0 
 29 30  1  0  0  0  0 
 30 31  1  0  0  0  0 
 31 32  1  0  0  0  0 
 32 33  1  0  0  0  0 
 28 33  1  0  0  0  0 
M  END
> <SMILES>
COC1=C(C=C(Cl)C=C1)C(=O)NCCC1=CC=C(C=C1)S(=O)(=O)NC(=O)NC1CCCCC1

$$$$

  CDK     06141809482D

 25 26  0  0  0  0  0  0  0  0999 V2000
   -6.4962   -0.2092    0.0000 C   0  0  0  0  0  0  0  0  0  0  0  0
   -5.1970    0.5406    0.0000 C   0  0  0  0  0  0  0  0  0  0  0  0
   -3.8981   -0.2096    0.0000 O   0  0  0  0  0  0  0  0  0  0  0  0
   -2.5989    0.5402    0.0000 C   0  0  0  0  0  0  0  0  0  0  0  0
   -2.5987    2.0402    0.0000 O   0  0  0  0  0  0  0  0  0  0  0  0
   -1.3000   -0.2100    0.0000 C   0  0  0  0  0  0  0  0  0  0  0  0
   -1.3000   -1.7100    0.0000 C   0  0  0  0  0  0  0  0  0  0  0  0
   -2.5989   -2.4602    0.0000 C   0  0  0  0  0  0  0  0  0  0  0  0
    0.0000   -2.4600    0.0000 N   0  0  0  0  0  0  0  0  0  0  0  0
    1.3000   -1.7100    0.0000 C   0  0  0  0  0  0  0  0  0  0  0  0
    2.5989   -2.4602    0.0000 C   0  0  0  0  0  0  0  0  0  0  0  0
    1.3000   -0.2100    0.0000 C   0  0  0  0  0  0  0  0  0  0  0  0
    0.0000    0.5400    0.0000 C   0  0  0  0  0  0  0  0  0  0  0  0
   -0.0000    3.0000    0.0000 C   0  0  0  0  0  0  0  0  0  0  0  0
   -1.2996    3.7506    0.0000 C   0  0  0  0  0  0  0  0  0  0  0  0
   -2.5986    3.0004    0.0000 Cl  0  0  0  0  0  0  0  0  0  0  0  0
   -1.3004    5.2515    0.0000 C   0  0  0  0  0  0  0  0  0  0  0  0
   -2.5996    6.0010    0.0000 Cl  0  0  0  0  0  0  0  0  0  0  0  0
   -0.0014    6.0017    0.0000 C   0  0  0  0  0  0  0  0  0  0  0  0
    1.2982    5.2510    0.0000 C   0  0  0  0  0  0  0  0  0  0  0  0
    1.2989    3.7502    0.0000 C   0  0  0  0  0  0  0  0  0  0  0  0
    2.5989    0.5402    0.0000 C   0  0  0  0  0  0  0  0  0  0  0  0
    2.5987    2.0402    0.0000 O   0  0  0  0  0  0  0  0  0  0  0  0
    3.8981   -0.2096    0.0000 O   0  0  0  0  0  0  0  0  0  0  0  0
    5.1970    0.5406    0.0000 C   0  0  0  0  0  0  0  0  0  0  0  0
  1  2  1  0  0  0  0 
  2  3  1  0  0  0  0 
  3  4  1  0  0  0  0 
  4  5  2  0  0  0  0 
  4  6  1  0  0  0  0 
  6  7  2  0  0  0  0 
  7  8  1  0  0  0  0 
  7  9  1  0  0  0  0 
  9 10  1  0  0  0  0 
 10 11  1  0  0  0  0 
 10 12  2  0  0  0  0 
 12 13  1  0  0  0  0 
  6 13  1  0  0  0  0 
 13 14  1  0  0  0  0 
 14 15  2  0  0  0  0 
 15 16  1  0  0  0  0 
 15 17  1  0  0  0  0 
 17 18  1  0  0  0  0 
 17 19  2  0  0  0  0 
 19 20  1  0  0  0  0 
 20 21  2  0  0  0  0 
 14 21  1  0  0  0  0 
 12 22  1  0  0  0  0 
 22 23  2  0  0  0  0 
 22 24  1  0  0  0  0 
 24 25  1  0  0  0  0 
M  END
> <SMILES>
CCOC(=O)C1=C(C)NC(C)=C(C1C1=C(Cl)C(Cl)=CC=C1)C(=O)OC

$$$$

  CDK     06141809482D

 31 35  0  0  1  0  0  0  0  0999 V2000
    1.5498   -4.9534    0.0000 C   0  0  0  0  0  0  0  0  0  0  0  0
    1.9643   -3.5118    0.0000 C   0  0  0  0  0  0  0  0  0  0  0  0
    3.4200   -3.1500    0.0000 C   0  0  1  0  0  0  0  0  0  0  0  0
    3.5224   -4.6465    0.0000 O   0  0  0  0  0  0  0  0  0  0  0  0
    4.9100   -3.3100    0.0000 C   0  0  0  0  0  0  0  0  0  0  0  0
    5.5182   -4.6811    0.0000 O   0  0  0  0  0  0  0  0  0  0  0  0
    5.7900   -2.1000    0.0000 O   0  0  0  0  0  0  0  0  0  0  0  0
    5.1800   -0.7300    0.0000 C   0  0  0  0  0  0  0  0  0  0  0  0
    3.6900   -0.5700    0.0000 C   0  0  0  0  0  0  0  0  0  0  0  0
    2.8100   -1.7800    0.0000 C   0  0  0  0  0  0  0  0  0  0  0  0
    1.3200   -1.6200    0.0000 C   0  0  0  0  0  0  0  0  0  0  0  0
    0.7100   -0.2600    0.0000 C   0  0  0  0  0  0  0  0  0  0  0  0
    1.5900    0.9600    0.0000 N   0  0  0  0  0  0  0  0  0  0  0  0
    0.7100    2.1700    0.0000 C   0  0  0  0  0  0  0  0  0  0  0  0
   -0.7200    1.7100    0.0000 C   0  0  0  0  0  0  0  0  0  0  0  0
   -2.0200    2.4600    0.0000 C   0  0  0  0  0  0  0  0  0  0  0  0
   -3.3200    1.7100    0.0000 C   0  0  0  0  0  0  0  0  0  0  0  0
   -3.3200    0.2100    0.0000 C   0  0  0  0  0  0  0  0  0  0  0  0
   -4.6200   -0.5400    0.0000 C   0  0  0  0  0  0  0  0  0  0  0  0
   -5.9200    0.2100    0.0000 C   0  0  0  0  0  0  0  0  0  0  0  0
   -5.9200    1.7100    0.0000 C   0  0  0  0  0  0  0  0  0  0  0  0
   -7.2189    2.4602    0.0000 O   0  0  0  0  0  0  0  0  0  0  0  0
   -4.6200    2.4600    0.0000 C   0  0  0  0  0  0  0  0  0  0  0  0
   -4.6200    3.9600    0.0000 C   0  0  0  0  0  0  0  0  0  0  0  0
   -5.9190    4.7100    0.0000 N   0  0  0  0  0  0  0  0  0  0  0  0
   -5.9190    6.2100    0.0000 C   0  0  0  0  0  0  0  0  0  0  0  0
   -7.2181    3.9600    0.0000 C   0  0  0  0  0  0  0  0  0  0  0  0
   -2.0200   -0.5400    0.0000 N   0  0  0  0  0  0  0  0  0  0  0  0
   -0.7200    0.2100    0.0000 C   0  0  0  0  0  0  0  0  0  0  0  0
    3.0800    0.8000    0.0000 C   0  0  0  0  0  0  0  0  0  0  0  0
    3.9630    2.0125    0.0000 O   0  0  0  0  0  0  0  0  0  0  0  0
  1  2  1  0  0  0  0 
  3  2  1  6  0  0  0 
  3  4  1  1  0  0  0 
  3  5  1  0  0  0  0 
  5  6  2  0  0  0  0 
  5  7  1  0  0  0  0 
  7  8  1  0  0  0  0 
  8  9  1  0  0  0  0 
  9 10  2  0  0  0  0 
  3 10  1  0  0  0  0 
 10 11  1  0  0  0  0 
 11 12  2  0  0  0  0 
 12 13  1  0  0  0  0 
 13 14  1  0  0  0  0 
 14 15  1  0  0  0  0 
 15 16  2  0  0  0  0 
 16 17  1  0  0  0  0 
 17 18  2  0  0  0  0 
 18 19  1  0  0  0  0 
 19 20  2  0  0  0  0 
 20 21  1  0  0  0  0 
 21 22  1  0  0  0  0 
 21 23  2  0  0  0  0 
 17 23  1  0  0  0  0 
 23 24  1  0  0  0  0 
 24 25  1  0  0  0  0 
 25 26  1  0  0  0  0 
 25 27  1  0  0  0  0 
 18 28  1  0  0  0  0 
 28 29  2  0  0  0  0 
 12 29  1  0  0  0  0 
 15 29  1  0  0  0  0 
 13 30  1  0  0  0  0 
  9 30  1  0  0  0  0 
 30 31  2  0  0  0  0 
M  END
> <SMILES>
CC[C@@]1(O)C(=O)OCC2=C1C=C1N(CC3=CC4=C(C=CC(O)=C4CN(C)C)N=C13)C2=O

$$$$

  CDK     06141809482D

 19 19  0  0  0  0  0  0  0  0999 V2000
   -7.7951   -1.5010    0.0000 C   0  0  0  0  0  0  0  0  0  0  0  0
   -6.4962   -0.7508    0.0000 C   0  0  0  0  0  0  0  0  0  0  0  0
   -5.1970   -1.5006    0.0000 C   0  0  0  0  0  0  0  0  0  0  0  0
   -3.8981   -0.7504    0.0000 N   0  0  0  0  0  0  0  0  0  0  0  0
   -3.8983    0.7496    0.0000 C   0  0  0  0  0  0  0  0  0  0  0  0
   -5.1975    1.4994    0.0000 C   0  0  0  0  0  0  0  0  0  0  0  0
   -6.4964    0.7492    0.0000 C   0  0  0  0  0  0  0  0  0  0  0  0
   -2.5989   -1.5002    0.0000 S   0  0  0  0  0  0  0  0  0  0  0  0
   -3.5629   -2.6494    0.0000 O   0  0  0  0  0  0  0  0  0  0  0  0
   -1.6346   -2.6491    0.0000 O   0  0  0  0  0  0  0  0  0  0  0  0
   -1.3000   -0.7500    0.0000 C   0  0  0  0  0  0  0  0  0  0  0  0
   -1.3000    0.7500    0.0000 C   0  0  0  0  0  0  0  0  0  0  0  0
    0.0000    1.5000    0.0000 C   0  0  0  0  0  0  0  0  0  0  0  0
    1.3000    0.7500    0.0000 C   0  0  0  0  0  0  0  0  0  0  0  0
    1.3000   -0.7500    0.0000 C   0  0  0  0  0  0  0  0  0  0  0  0
    0.0000   -1.5000    0.0000 C   0  0  0  0  0  0  0  0  0  0  0  0
    2.5989    1.5002    0.0000 C   0  0  0  0  0  0  0  0  0  0  0  0
    3.8981    0.7504    0.0000 O   0  0  0  0  0  0  0  0  0  0  0  0
    2.5987    3.0002    0.0000 O   0  0  0  0  0  0  0  0  0  0  0  0
  1  2  1  0  0  0  0 
  2  3  1  0  0  0  0 
  3  4  1  0  0  0  0 
  4  5  1  0  0  0  0 
  5  6  1  0  0  0  0 
  6  7  1  0  0  0  0 
  4  8  1  0  0  0  0 
  8  9  2  0  0  0  0 
  8 10  2  0  0  0  0 
  8 11  1  0  0  0  0 
 11 12  2  0  0  0  0 
 12 13  1  0  0  0  0 
 13 14  2  0  0  0  0 
 14 15  1  0  0  0  0 
 15 16  2  0  0  0  0 
 11 16  1  0  0  0  0 
 14 17  1  0  0  0  0 
 17 18  1  0  0  0  0 
 17 19  2  0  0  0  0 
M  END
> <SMILES>
CCCN(CCC)S(=O)(=O)C1=CC=C(C=C1)C(O)=O

$$$$

  CDK     06141809482D

 14 14  0  0  1  0  0  0  0  0999 V2000
   -0.9740    1.2571    0.0000 C   0  0  0  0  0  0  0  0  0  0  0  0
   -0.9740    2.7571    0.0000 C   0  0  2  0  0  0  0  0  0  0  0  0
    0.3250    3.5071    0.0000 C   0  0  0  0  0  0  0  0  0  0  0  0
    1.6240    2.7571    0.0000 C   0  0  0  0  0  0  0  0  0  0  0  0
    2.9236    3.5079    0.0000 C   0  0  0  0  0  0  0  0  0  0  0  0
    4.2226    2.7579    0.0000 C   0  0  0  0  0  0  0  0  0  0  0  0
    4.2221    1.2571    0.0000 C   0  0  0  0  0  0  0  0  0  0  0  0
    2.9226    0.5063    0.0000 C   0  0  0  0  0  0  0  0  0  0  0  0
    1.6236    1.2563    0.0000 C   0  0  0  0  0  0  0  0  0  0  0  0
   -2.2731    3.5071    0.0000 N   0  0  0  0  0  0  0  0  0  0  0  0
   -2.2731    5.0071    0.0000 C   0  0  0  0  0  0  0  0  0  0  0  0
   -3.5721    2.7571    0.0000 C   0  0  0  0  0  0  0  0  0  0  0  0
   -4.8712    3.5071    0.0000 C   0  0  0  0  0  0  0  0  0  0  0  0
   -6.1702    4.2571    0.0000 C   0  0  0  0  0  0  0  0  0  0  0  0
  2  1  1  1  0  0  0 
  2  3  1  0  0  0  0 
  3  4  1  0  0  0  0 
  4  5  2  0  0  0  0 
  5  6  1  0  0  0  0 
  6  7  2  0  0  0  0 
  7  8  1  0  0  0  0 
  8  9  2  0  0  0  0 
  4  9  1  0  0  0  0 
  2 10  1  0  0  0  0 
 10 11  1  0  0  0  0 
 10 12  1  0  0  0  0 
 12 13  1  0  0  0  0 
 13 14  3  0  0  0  0 
M  END
> <SMILES>
C[C@H](CC1=CC=CC=C1)N(C)CC#C

$$$$

  CDK     06141809482D

 15 15  0  0  0  0  0  0  0  0999 V2000
   -5.2505    1.1357    0.0000 C   0  0  0  0  0  0  0  0  0  0  0  0
   -3.7513    1.1848    0.0000 C   0  0  0  0  0  0  0  0  0  0  0  0
   -3.0441    2.5076    0.0000 C   0  0  0  0  0  0  0  0  0  0  0  0
   -2.9592   -0.0890    0.0000 C   0  0  0  0  0  0  0  0  0  0  0  0
   -1.4600   -0.0400    0.0000 C   0  0  0  0  0  0  0  0  0  0  0  0
   -0.7100   -1.2800    0.0000 C   0  0  0  0  0  0  0  0  0  0  0  0
    0.7700   -1.2900    0.0000 C   0  0  0  0  0  0  0  0  0  0  0  0
    1.4600    0.0400    0.0000 C   0  0  0  0  0  0  0  0  0  0  0  0
    0.7100    1.2800    0.0000 C   0  0  0  0  0  0  0  0  0  0  0  0
   -0.7700    1.2900    0.0000 C   0  0  0  0  0  0  0  0  0  0  0  0
    2.9592    0.0890    0.0000 C   0  0  0  0  0  0  0  0  0  0  0  0
    3.6663    1.4119    0.0000 C   0  0  0  0  0  0  0  0  0  0  0  0
    3.7513   -1.1848    0.0000 C   0  0  0  0  0  0  0  0  0  0  0  0
    5.2505   -1.1357    0.0000 O   0  0  0  0  0  0  0  0  0  0  0  0
    3.0441   -2.5076    0.0000 O   0  0  0  0  0  0  0  0  0  0  0  0
  1  2  1  0  0  0  0 
  2  3  1  0  0  0  0 
  2  4  1  0  0  0  0 
  4  5  1  0  0  0  0 
  5  6  2  0  0  0  0 
  6  7  1  0  0  0  0 
  7  8  2  0  0  0  0 
  8  9  1  0  0  0  0 
  9 10  2  0  0  0  0 
  5 10  1  0  0  0  0 
  8 11  1  0  0  0  0 
 11 12  1  0  0  0  0 
 11 13  1  0  0  0  0 
 13 14  1  0  0  0  0 
 13 15  2  0  0  0  0 
M  END
> <SMILES>
CC(C)CC1=CC=C(C=C1)C(C)C(O)=O

$$$$

  CDK     06141809482D

 26 27  0  0  0  0  0  0  0  0999 V2000
   -6.4962    0.7508    0.0000 C   0  0  0  0  0  0  0  0  0  0  0  0
   -5.1970    1.5006    0.0000 C   0  0  0  0  0  0  0  0  0  0  0  0
   -3.8981    0.7504    0.0000 O   0  0  0  0  0  0  0  0  0  0  0  0
   -2.5989    1.5002    0.0000 C   0  0  0  0  0  0  0  0  0  0  0  0
   -2.5987    3.0002    0.0000 O   0  0  0  0  0  0  0  0  0  0  0  0
   -1.3000    0.7500    0.0000 C   0  0  0  0  0  0  0  0  0  0  0  0
   -1.3000   -0.7500    0.0000 C   0  0  0  0  0  0  0  0  0  0  0  0
   -2.5989   -1.5002    0.0000 C   0  0  0  0  0  0  0  0  0  0  0  0
   -0.0000   -1.5000    0.0000 N   0  0  0  0  0  0  0  0  0  0  0  0
    1.3000   -0.7500    0.0000 C   0  0  0  0  0  0  0  0  0  0  0  0
    2.5989   -1.5002    0.0000 C   0  0  0  0  0  0  0  0  0  0  0  0
    1.3000    0.7500    0.0000 C   0  0  0  0  0  0  0  0  0  0  0  0
   -0.0000    1.5000    0.0000 C   0  0  0  0  0  0  0  0  0  0  0  0
    0.0000    3.0000    0.0000 C   0  0  0  0  0  0  0  0  0  0  0  0
   -1.2987    3.7522    0.0000 C   0  0  0  0  0  0  0  0  0  0  0  0
   -1.2962    5.2522    0.0000 C   0  0  0  0  0  0  0  0  0  0  0  0
    0.0050    6.0000    0.0000 C   0  0  0  0  0  0  0  0  0  0  0  0
    1.2938    5.2478    0.0000 C   0  0  0  0  0  0  0  0  0  0  0  0
    1.2913    3.7478    0.0000 C   0  0  0  0  0  0  0  0  0  0  0  0
   -2.5939    6.0046    0.0000 N   0  0  0  0  0  0  0  0  0  0  0  0
   -2.5911    7.5046    0.0000 O   0  0  0  0  0  0  0  0  0  0  0  0
   -3.8943    5.2569    0.0000 O   0  0  0  0  0  0  0  0  0  0  0  0
    2.5989    1.5002    0.0000 C   0  0  0  0  0  0  0  0  0  0  0  0
    2.5987    3.0002    0.0000 O   0  0  0  0  0  0  0  0  0  0  0  0
    3.8981    0.7504    0.0000 O   0  0  0  0  0  0  0  0  0  0  0  0
    5.1970    1.5006    0.0000 C   0  0  0  0  0  0  0  0  0  0  0  0
  1  2  1  0  0  0  0 
  2  3  1  0  0  0  0 
  3  4  1  0  0  0  0 
  4  5  2  0  0  0  0 
  4  6  1  0  0  0  0 
  6  7  2  0  0  0  0 
  7  8  1  0  0  0  0 
  7  9  1  0  0  0  0 
  9 10  1  0  0  0  0 
 10 11  1  0  0  0  0 
 10 12  2  0  0  0  0 
 12 13  1  0  0  0  0 
  6 13  1  0  0  0  0 
 13 14  1  0  0  0  0 
 14 15  2  0  0  0  0 
 15 16  1  0  0  0  0 
 16 17  2  0  0  0  0 
 17 18  1  0  0  0  0 
 18 19  2  0  0  0  0 
 14 19  1  0  0  0  0 
 16 20  1  0  0  0  0 
 20 21  1  0  0  0  0 
 20 22  2  0  0  0  0 
 12 23  1  0  0  0  0 
 23 24  2  0  0  0  0 
 23 25  1  0  0  0  0 
 25 26  1  0  0  0  0 
M  CHG  1  20   1
M  CHG  1  21  -1
M  END
> <SMILES>
CCOC(=O)C1=C(C)NC(C)=C(C1C1=CC(=CC=C1)[N+]([O-])=O)C(=O)OC

$$$$

  CDK     06141809482D

 20 22  0  0  0  0  0  0  0  0999 V2000
   -2.5981    2.8000    0.0000 C   0  0  0  0  0  0  0  0  0  0  0  0
   -1.2990    3.5500    0.0000 C   0  0  0  0  0  0  0  0  0  0  0  0
    0.0000    2.8000    0.0000 C   0  0  0  0  0  0  0  0  0  0  0  0
   -0.0000    1.3000    0.0000 N   0  0  0  0  0  0  0  0  0  0  0  0
    1.3000    0.5500    0.0000 C   0  0  0  0  0  0  0  0  0  0  0  0
    2.6000    1.3000    0.0000 C   0  0  0  0  0  0  0  0  0  0  0  0
    3.9000    0.5500    0.0000 C   0  0  0  0  0  0  0  0  0  0  0  0
    3.9000   -0.9500    0.0000 C   0  0  0  0  0  0  0  0  0  0  0  0
    2.6000   -1.7000    0.0000 C   0  0  0  0  0  0  0  0  0  0  0  0
    1.3000   -0.9500    0.0000 C   0  0  0  0  0  0  0  0  0  0  0  0
   -0.0000   -1.7000    0.0000 S   0  0  0  0  0  0  0  0  0  0  0  0
   -1.3000   -0.9500    0.0000 C   0  0  0  0  0  0  0  0  0  0  0  0
   -2.6000   -1.7000    0.0000 C   0  0  0  0  0  0  0  0  0  0  0  0
   -3.9000   -0.9500    0.0000 C   0  0  0  0  0  0  0  0  0  0  0  0
   -3.9000    0.5500    0.0000 C   0  0  0  0  0  0  0  0  0  0  0  0
   -2.6000    1.3000    0.0000 C   0  0  0  0  0  0  0  0  0  0  0  0
   -1.3000    0.5500    0.0000 C   0  0  0  0  0  0  0  0  0  0  0  0
   -1.2990    5.0500    0.0000 N   0  0  0  0  0  0  0  0  0  0  0  0
   -2.5981    5.8000    0.0000 C   0  0  0  0  0  0  0  0  0  0  0  0
    0.0000    5.8000    0.0000 C   0  0  0  0  0  0  0  0  0  0  0  0
  1  2  1  0  0  0  0 
  2  3  1  0  0  0  0 
  3  4  1  0  0  0  0 
  4  5  1  0  0  0  0 
  5  6  2  0  0  0  0 
  6  7  1  0  0  0  0 
  7  8  2  0  0  0  0 
  8  9  1  0  0  0  0 
  9 10  2  0  0  0  0 
  5 10  1  0  0  0  0 
 10 11  1  0  0  0  0 
 11 12  1  0  0  0  0 
 12 13  2  0  0  0  0 
 13 14  1  0  0  0  0 
 14 15  2  0  0  0  0 
 15 16  1  0  0  0  0 
 16 17  2  0  0  0  0 
  4 17  1  0  0  0  0 
 12 17  1  0  0  0  0 
  2 18  1  0  0  0  0 
 18 19  1  0  0  0  0 
 18 20  1  0  0  0  0 
M  END
> <SMILES>
CC(CN1C2=CC=CC=C2SC2=CC=CC=C12)N(C)C

$$$$

  CDK     06141809482D

 41 44  0  0  1  0  0  0  0  0999 V2000
   -0.0522   -5.5772    0.0000 C   0  0  0  0  0  0  0  0  0  0  0  0
   -1.1644   -4.5708    0.0000 C   0  0  0  0  0  0  0  0  0  0  0  0
   -2.5921   -5.0307    0.0000 C   0  0  0  0  0  0  0  0  0  0  0  0
   -0.8489   -3.1043    0.0000 C   0  0  0  0  0  0  0  0  0  0  0  0
   -1.8486   -1.9959    0.0000 C   0  0  0  0  0  0  0  0  0  0  0  0
   -3.3404   -2.1534    0.0000 C   0  0  0  0  0  0  0  0  0  0  0  0
   -3.9499   -3.5240    0.0000 O   0  0  0  0  0  0  0  0  0  0  0  0
   -4.2226   -0.9403    0.0000 N   0  0  0  0  0  0  0  0  0  0  0  0
   -5.7143   -1.0977    0.0000 C   0  0  0  0  0  0  0  0  0  0  0  0
   -6.5966    0.1164    0.0000 C   0  0  0  0  0  0  0  0  0  0  0  0
   -8.0883   -0.0411    0.0000 C   0  0  0  0  0  0  0  0  0  0  0  0
   -8.6977   -1.4126    0.0000 C   0  0  0  0  0  0  0  0  0  0  0  0
   -7.8154   -2.6267    0.0000 C   0  0  0  0  0  0  0  0  0  0  0  0
   -6.3237   -2.4693    0.0000 C   0  0  0  0  0  0  0  0  0  0  0  0
   -1.0986   -0.6969    0.0000 C   0  0  0  0  0  0  0  0  0  0  0  0
    0.3611   -1.0085    0.0000 C   0  0  0  0  0  0  0  0  0  0  0  0
    0.5269   -2.5014    0.0000 N   0  0  0  0  0  0  0  0  0  0  0  0
    1.8259   -3.2514    0.0000 C   0  0  0  0  0  0  0  0  0  0  0  0
    3.1250   -2.5014    0.0000 C   0  0  0  0  0  0  0  0  0  0  0  0
    4.4240   -3.2514    0.0000 C   0  0  1  0  0  0  0  0  0  0  0  0
    4.4240   -4.7514    0.0000 O   0  0  0  0  0  0  0  0  0  0  0  0
    5.7230   -2.5014    0.0000 C   0  0  0  0  0  0  0  0  0  0  0  0
    7.0221   -3.2514    0.0000 C   0  0  1  0  0  0  0  0  0  0  0  0
    7.0221   -4.7514    0.0000 O   0  0  0  0  0  0  0  0  0  0  0  0
    8.3211   -2.5014    0.0000 C   0  0  0  0  0  0  0  0  0  0  0  0
    9.6201   -3.2514    0.0000 C   0  0  0  0  0  0  0  0  0  0  0  0
   10.9192   -2.5014    0.0000 O   0  0  0  0  0  0  0  0  0  0  0  0
    9.6201   -4.7514    0.0000 O   0  0  0  0  0  0  0  0  0  0  0  0
    1.4733   -0.0021    0.0000 C   0  0  0  0  0  0  0  0  0  0  0  0
    1.1580    1.4644    0.0000 C   0  0  0  0  0  0  0  0  0  0  0  0
    2.2714    2.4709    0.0000 C   0  0  0  0  0  0  0  0  0  0  0  0
    3.7000    2.0109    0.0000 C   0  0  0  0  0  0  0  0  0  0  0  0
    4.8122    3.0174    0.0000 F   0  0  0  0  0  0  0  0  0  0  0  0
    4.0152    0.5444    0.0000 C   0  0  0  0  0  0  0  0  0  0  0  0
    2.9019   -0.4621    0.0000 C   0  0  0  0  0  0  0  0  0  0  0  0
   -1.7081    0.6737    0.0000 C   0  0  0  0  0  0  0  0  0  0  0  0
   -3.2007    0.8307    0.0000 C   0  0  0  0  0  0  0  0  0  0  0  0
   -3.8102    2.2013    0.0000 C   0  0  0  0  0  0  0  0  0  0  0  0
   -2.9271    3.4149    0.0000 C   0  0  0  0  0  0  0  0  0  0  0  0
   -1.4346    3.2578    0.0000 C   0  0  0  0  0  0  0  0  0  0  0  0
   -0.8251    1.8872    0.0000 C   0  0  0  0  0  0  0  0  0  0  0  0
  1  2  1  0  0  0  0 
  2  3  1  0  0  0  0 
  2  4  1  0  0  0  0 
  4  5  2  0  0  0  0 
  5  6  1  0  0  0  0 
  6  7  2  0  0  0  0 
  6  8  1  0  0  0  0 
  8  9  1  0  0  0  0 
  9 10  2  0  0  0  0 
 10 11  1  0  0  0  0 
 11 12  2  0  0  0  0 
 12 13  1  0  0  0  0 
 13 14  2  0  0  0  0 
  9 14  1  0  0  0  0 
  5 15  1  0  0  0  0 
 15 16  2  0  0  0  0 
 16 17  1  0  0  0  0 
  4 17  1  0  0  0  0 
 17 18  1  0  0  0  0 
 18 19  1  0  0  0  0 
 19 20  1  0  0  0  0 
 20 21  1  6  0  0  0 
 20 22  1  0  0  0  0 
 22 23  1  0  0  0  0 
 23 24  1  6  0  0  0 
 23 25  1  0  0  0  0 
 25 26  1  0  0  0  0 
 26 27  1  0  0  0  0 
 26 28  2  0  0  0  0 
 16 29  1  0  0  0  0 
 29 30  2  0  0  0  0 
 30 31  1  0  0  0  0 
 31 32  2  0  0  0  0 
 32 33  1  0  0  0  0 
 32 34  1  0  0  0  0 
 34 35  2  0  0  0  0 
 29 35  1  0  0  0  0 
 15 36  1  0  0  0  0 
 36 37  2  0  0  0  0 
 37 38  1  0  0  0  0 
 38 39  2  0  0  0  0 
 39 40  1  0  0  0  0 
 40 41  2  0  0  0  0 
 36 41  1  0  0  0  0 
M  END
> <SMILES>
CC(C)C1=C(C(=O)NC2=CC=CC=C2)C(=C(N1CC[C@@H](O)C[C@@H](O)CC(O)=O)C1=CC=C(F)C=C1)C1=CC=CC=C1

$$$$

  CDK     06141809482D

 12 12  0  0  0  0  0  0  0  0999 V2000
   -6.4962    0.7508    0.0000 C   0  0  0  0  0  0  0  0  0  0  0  0
   -5.1970    1.5006    0.0000 C   0  0  0  0  0  0  0  0  0  0  0  0
   -3.8981    0.7504    0.0000 O   0  0  0  0  0  0  0  0  0  0  0  0
   -2.5989    1.5002    0.0000 C   0  0  0  0  0  0  0  0  0  0  0  0
   -2.5987    3.0002    0.0000 O   0  0  0  0  0  0  0  0  0  0  0  0
   -1.3000    0.7500    0.0000 C   0  0  0  0  0  0  0  0  0  0  0  0
   -1.3000   -0.7500    0.0000 C   0  0  0  0  0  0  0  0  0  0  0  0
    0.0000   -1.5000    0.0000 C   0  0  0  0  0  0  0  0  0  0  0  0
    1.3000   -0.7500    0.0000 C   0  0  0  0  0  0  0  0  0  0  0  0
    2.5989   -1.5002    0.0000 N   0  0  0  0  0  0  0  0  0  0  0  0
    1.3000    0.7500    0.0000 C   0  0  0  0  0  0  0  0  0  0  0  0
    0.0000    1.5000    0.0000 C   0  0  0  0  0  0  0  0  0  0  0  0
  1  2  1  0  0  0  0 
  2  3  1  0  0  0  0 
  3  4  1  0  0  0  0 
  4  5  2  0  0  0  0 
  4  6  1  0  0  0  0 
  6  7  2  0  0  0  0 
  7  8  1  0  0  0  0 
  8  9  2  0  0  0  0 
  9 10  1  0  0  0  0 
  9 11  1  0  0  0  0 
 11 12  2  0  0  0  0 
  6 12  1  0  0  0  0 
M  END
> <SMILES>
CCOC(=O)C1=CC=C(N)C=C1

$$$$

  CDK     06141809482D

 34 38  0  0  0  0  0  0  0  0999 V2000
    8.8446   14.6654    0.0000 F   0  0  0  0  0  0  0  0  0  0  0  0
    8.3793   13.2394    0.0000 C   0  0  0  0  0  0  0  0  0  0  0  0
    6.9109   12.9289    0.0000 C   0  0  0  0  0  0  0  0  0  0  0  0
    6.4447   11.5023    0.0000 C   0  0  0  0  0  0  0  0  0  0  0  0
    7.4469   10.3862    0.0000 C   0  0  0  0  0  0  0  0  0  0  0  0
    8.9152   10.6967    0.0000 C   0  0  0  0  0  0  0  0  0  0  0  0
    9.3815   12.1233    0.0000 C   0  0  0  0  0  0  0  0  0  0  0  0
    6.9816    8.9602    0.0000 C   0  0  0  0  0  0  0  0  0  0  0  0
    5.5140    8.6501    0.0000 C   0  0  0  0  0  0  0  0  0  0  0  0
    5.0487    7.2241    0.0000 C   0  0  0  0  0  0  0  0  0  0  0  0
    3.5811    6.9141    0.0000 C   0  0  0  0  0  0  0  0  0  0  0  0
    3.1158    5.4880    0.0000 N   0  0  0  0  0  0  0  0  0  0  0  0
    4.1191    4.3718    0.0000 C   0  0  0  0  0  0  0  0  0  0  0  0
    3.6538    2.9458    0.0000 C   0  0  0  0  0  0  0  0  0  0  0  0
    2.1853    2.6360    0.0000 C   0  0  0  0  0  0  0  0  0  0  0  0
    1.1820    3.7523    0.0000 C   0  0  0  0  0  0  0  0  0  0  0  0
    1.6473    5.1783    0.0000 C   0  0  0  0  0  0  0  0  0  0  0  0
    1.7200    1.2100    0.0000 N   0  0  0  0  0  0  0  0  0  0  0  0
    2.6000    0.0000    0.0000 C   0  0  0  0  0  0  0  0  0  0  0  0
    4.1000   -0.0000    0.0000 O   0  0  0  0  0  0  0  0  0  0  0  0
    1.7200   -1.2100    0.0000 N   0  0  0  0  0  0  0  0  0  0  0  0
    0.2900   -0.7500    0.0000 C   0  0  0  0  0  0  0  0  0  0  0  0
   -1.0100   -1.5000    0.0000 C   0  0  0  0  0  0  0  0  0  0  0  0
   -2.3100   -0.7500    0.0000 C   0  0  0  0  0  0  0  0  0  0  0  0
   -2.3100    0.7500    0.0000 C   0  0  0  0  0  0  0  0  0  0  0  0
   -1.0100    1.5000    0.0000 C   0  0  0  0  0  0  0  0  0  0  0  0
    0.2900    0.7500    0.0000 C   0  0  0  0  0  0  0  0  0  0  0  0
    7.9839    7.8443    0.0000 C   0  0  0  0  0  0  0  0  0  0  0  0
    9.4516    8.1541    0.0000 C   0  0  0  0  0  0  0  0  0  0  0  0
   10.4539    7.0370    0.0000 C   0  0  0  0  0  0  0  0  0  0  0  0
    9.9886    5.6101    0.0000 C   0  0  0  0  0  0  0  0  0  0  0  0
   10.9909    4.4942    0.0000 F   0  0  0  0  0  0  0  0  0  0  0  0
    8.5210    5.3003    0.0000 C   0  0  0  0  0  0  0  0  0  0  0  0
    7.5186    6.4174    0.0000 C   0  0  0  0  0  0  0  0  0  0  0  0
  1  2  1  0  0  0  0 
  2  3  2  0  0  0  0 
  3  4  1  0  0  0  0 
  4  5  2  0  0  0  0 
  5  6  1  0  0  0  0 
  6  7  2  0  0  0  0 
  2  7  1  0  0  0  0 
  5  8  1  0  0  0  0 
  8  9  1  0  0  0  0 
  9 10  1  0  0  0  0 
 10 11  1  0  0  0  0 
 11 12  1  0  0  0  0 
 12 13  1  0  0  0  0 
 13 14  1  0  0  0  0 
 14 15  1  0  0  0  0 
 15 16  1  0  0  0  0 
 16 17  1  0  0  0  0 
 12 17  1  0  0  0  0 
 15 18  1  0  0  0  0 
 18 19  1  0  0  0  0 
 19 20  2  0  0  0  0 
 19 21  1  0  0  0  0 
 21 22  1  0  0  0  0 
 22 23  2  0  0  0  0 
 23 24  1  0  0  0  0 
 24 25  2  0  0  0  0 
 25 26  1  0  0  0  0 
 26 27  2  0  0  0  0 
 18 27  1  0  0  0  0 
 22 27  1  0  0  0  0 
  8 28  1  0  0  0  0 
 28 29  2  0  0  0  0 
 29 30  1  0  0  0  0 
 30 31  2  0  0  0  0 
 31 32  1  0  0  0  0 
 31 33  1  0  0  0  0 
 33 34  2  0  0  0  0 
 28 34  1  0  0  0  0 
M  END
> <SMILES>
FC1=CC=C(C=C1)C(CCCN1CCC(CC1)N1C(=O)NC2=CC=CC=C12)C1=CC=C(F)C=C1

$$$$

  CDK     06141809482D

 28 30  0  0  0  0  0  0  0  0999 V2000
   -5.1962   10.3200    0.0000 C   0  0  0  0  0  0  0  0  0  0  0  0
   -3.8971    9.5700    0.0000 C   0  0  0  0  0  0  0  0  0  0  0  0
   -3.8971    8.0700    0.0000 N   0  0  0  0  0  0  0  0  0  0  0  0
   -5.1962    7.3200    0.0000 C   0  0  0  0  0  0  0  0  0  0  0  0
   -6.4952    8.0700    0.0000 C   0  0  0  0  0  0  0  0  0  0  0  0
   -2.5981    7.3200    0.0000 C   0  0  0  0  0  0  0  0  0  0  0  0
   -2.5981    5.8200    0.0000 C   0  0  0  0  0  0  0  0  0  0  0  0
   -1.2990    5.0700    0.0000 C   0  0  0  0  0  0  0  0  0  0  0  0
   -1.2990    3.5700    0.0000 C   0  0  0  0  0  0  0  0  0  0  0  0
   -2.5981    2.8200    0.0000 C   0  0  0  0  0  0  0  0  0  0  0  0
    0.0000    2.8200    0.0000 N   0  0  0  0  0  0  0  0  0  0  0  0
    0.0000    1.3200    0.0000 C   0  0  0  0  0  0  0  0  0  0  0  0
    1.3000    0.5700    0.0000 C   0  0  0  0  0  0  0  0  0  0  0  0
    2.6000    1.3200    0.0000 C   0  0  0  0  0  0  0  0  0  0  0  0
    3.9000    0.5700    0.0000 C   0  0  0  0  0  0  0  0  0  0  0  0
    5.1989    1.3202    0.0000 O   0  0  0  0  0  0  0  0  0  0  0  0
    6.4981    0.5704    0.0000 C   0  0  0  0  0  0  0  0  0  0  0  0
    3.9000   -0.9300    0.0000 C   0  0  0  0  0  0  0  0  0  0  0  0
    2.6000   -1.6800    0.0000 C   0  0  0  0  0  0  0  0  0  0  0  0
    1.3000   -0.9300    0.0000 C   0  0  0  0  0  0  0  0  0  0  0  0
    0.0000   -1.6800    0.0000 N   0  0  0  0  0  0  0  0  0  0  0  0
   -1.3000   -0.9300    0.0000 C   0  0  0  0  0  0  0  0  0  0  0  0
   -1.3000    0.5700    0.0000 C   0  0  0  0  0  0  0  0  0  0  0  0
   -2.6000    1.3200    0.0000 C   0  0  0  0  0  0  0  0  0  0  0  0
   -3.9000    0.5700    0.0000 C   0  0  0  0  0  0  0  0  0  0  0  0
   -3.9000   -0.9300    0.0000 C   0  0  0  0  0  0  0  0  0  0  0  0
   -5.1989   -1.6802    0.0000 Cl  0  0  0  0  0  0  0  0  0  0  0  0
   -2.6000   -1.6800    0.0000 C   0  0  0  0  0  0  0  0  0  0  0  0
  1  2  1  0  0  0  0 
  2  3  1  0  0  0  0 
  3  4  1  0  0  0  0 
  4  5  1  0  0  0  0 
  3  6  1  0  0  0  0 
  6  7  1  0  0  0  0 
  7  8  1  0  0  0  0 
  8  9  1  0  0  0  0 
  9 10  1  0  0  0  0 
  9 11  1  0  0  0  0 
 11 12  1  0  0  0  0 
 12 13  2  0  0  0  0 
 13 14  1  0  0  0  0 
 14 15  2  0  0  0  0 
 15 16  1  0  0  0  0 
 16 17  1  0  0  0  0 
 15 18  1  0  0  0  0 
 18 19  2  0  0  0  0 
 19 20  1  0  0  0  0 
 13 20  1  0  0  0  0 
 20 21  2  0  0  0  0 
 21 22  1  0  0  0  0 
 22 23  2  0  0  0  0 
 12 23  1  0  0  0  0 
 23 24  1  0  0  0  0 
 24 25  2  0  0  0  0 
 25 26  1  0  0  0  0 
 26 27  1  0  0  0  0 
 26 28  2  0  0  0  0 
 22 28  1  0  0  0  0 
M  END
> <SMILES>
CCN(CC)CCCC(C)NC1=C2C=C(OC)C=CC2=NC2=C1C=CC(Cl)=C2

$$$$

  CDK     06141809482D

 20 22  0  0  1  0  0  0  0  0999 V2000
   -2.5990    3.7500    0.0000 C   0  0  0  0  0  0  0  0  0  0  0  0
   -1.3000    3.0000    0.0000 N   0  0  0  0  0  0  0  0  0  0  0  0
   -1.3000    1.5000    0.0000 C   0  0  1  0  0  0  0  0  0  0  0  0
   -2.6000    0.7500    0.0000 C   0  0  0  0  0  0  0  0  0  0  0  0
   -2.6000   -0.7500    0.0000 C   0  0  0  0  0  0  0  0  0  0  0  0
   -1.3000   -1.5000    0.0000 C   0  0  1  0  0  0  0  0  0  0  0  0
   -1.3000   -3.0000    0.0000 C   0  0  0  0  0  0  0  0  0  0  0  0
   -0.0004   -3.7506    0.0000 C   0  0  0  0  0  0  0  0  0  0  0  0
    0.0004   -5.2515    0.0000 C   0  0  0  0  0  0  0  0  0  0  0  0
    1.2996   -6.0010    0.0000 Cl  0  0  0  0  0  0  0  0  0  0  0  0
   -1.2986   -6.0017    0.0000 C   0  0  0  0  0  0  0  0  0  0  0  0
   -1.2986   -7.5017    0.0000 Cl  0  0  0  0  0  0  0  0  0  0  0  0
   -2.5982   -5.2510    0.0000 C   0  0  0  0  0  0  0  0  0  0  0  0
   -2.5989   -3.7502    0.0000 C   0  0  0  0  0  0  0  0  0  0  0  0
    0.0000   -0.7500    0.0000 C   0  0  0  0  0  0  0  0  0  0  0  0
    1.3000   -1.5000    0.0000 C   0  0  0  0  0  0  0  0  0  0  0  0
    2.6000   -0.7500    0.0000 C   0  0  0  0  0  0  0  0  0  0  0  0
    2.6000    0.7500    0.0000 C   0  0  0  0  0  0  0  0  0  0  0  0
    1.3000    1.5000    0.0000 C   0  0  0  0  0  0  0  0  0  0  0  0
    0.0000    0.7500    0.0000 C   0  0  0  0  0  0  0  0  0  0  0  0
  1  2  1  0  0  0  0 
  3  2  1  6  0  0  0 
  3  4  1  0  0  0  0 
  4  5  1  0  0  0  0 
  5  6  1  0  0  0  0 
  6  7  1  6  0  0  0 
  7  8  2  0  0  0  0 
  8  9  1  0  0  0  0 
  9 10  1  0  0  0  0 
  9 11  2  0  0  0  0 
 11 12  1  0  0  0  0 
 11 13  1  0  0  0  0 
 13 14  2  0  0  0  0 
  7 14  1  0  0  0  0 
  6 15  1  0  0  0  0 
 15 16  2  0  0  0  0 
 16 17  1  0  0  0  0 
 17 18  2  0  0  0  0 
 18 19  1  0  0  0  0 
 19 20  2  0  0  0  0 
  3 20  1  0  0  0  0 
 15 20  1  0  0  0  0 
M  END
> <SMILES>
CN[C@H]1CC[C@@H](C2=CC(Cl)=C(Cl)C=C2)C2=CC=CC=C12

$$$$

  CDK     06141809482D

 25 27  0  0  0  0  0  0  0  0999 V2000
   -8.2148    1.7437    0.0000 Cl  0  0  0  0  0  0  0  0  0  0  0  0
   -6.9158    2.4937    0.0000 C   0  0  0  0  0  0  0  0  0  0  0  0
   -6.9155    3.9937    0.0000 C   0  0  0  0  0  0  0  0  0  0  0  0
   -5.6154    4.7434    0.0000 C   0  0  0  0  0  0  0  0  0  0  0  0
   -5.6152    6.2434    0.0000 Cl  0  0  0  0  0  0  0  0  0  0  0  0
   -4.3155    3.9932    0.0000 C   0  0  0  0  0  0  0  0  0  0  0  0
   -3.0165    4.7432    0.0000 C   0  0  0  0  0  0  0  0  0  0  0  0
   -3.0165    6.2432    0.0000 O   0  0  0  0  0  0  0  0  0  0  0  0
   -1.7175    6.9932    0.0000 C   0  0  0  0  0  0  0  0  0  0  0  0
   -1.7175    8.4932    0.0000 C   0  0  0  0  0  0  0  0  0  0  0  0
   -0.4184    9.2432    0.0000 N   0  0  0  0  0  0  0  0  0  0  0  0
    0.9487    8.6354    0.0000 C   0  0  0  0  0  0  0  0  0  0  0  0
    1.9571    9.7487    0.0000 C   0  0  0  0  0  0  0  0  0  0  0  0
    1.2071   11.0478    0.0000 N   0  0  0  0  0  0  0  0  0  0  0  0
   -0.2613   10.7311    0.0000 C   0  0  0  0  0  0  0  0  0  0  0  0
   -0.4184    6.2432    0.0000 C   0  0  0  0  0  0  0  0  0  0  0  0
   -0.4182    4.7424    0.0000 C   0  0  0  0  0  0  0  0  0  0  0  0
   -1.7173    3.9926    0.0000 Cl  0  0  0  0  0  0  0  0  0  0  0  0
    0.8812    3.9914    0.0000 C   0  0  0  0  0  0  0  0  0  0  0  0
    2.1804    4.7412    0.0000 C   0  0  0  0  0  0  0  0  0  0  0  0
    3.4794    3.9912    0.0000 Cl  0  0  0  0  0  0  0  0  0  0  0  0
    2.1801    6.2420    0.0000 C   0  0  0  0  0  0  0  0  0  0  0  0
    0.8807    6.9930    0.0000 C   0  0  0  0  0  0  0  0  0  0  0  0
   -4.3158    2.4932    0.0000 C   0  0  0  0  0  0  0  0  0  0  0  0
   -5.6159    1.7434    0.0000 C   0  0  0  0  0  0  0  0  0  0  0  0
  1  2  1  0  0  0  0 
  2  3  2  0  0  0  0 
  3  4  1  0  0  0  0 
  4  5  1  0  0  0  0 
  4  6  2  0  0  0  0 
  6  7  1  0  0  0  0 
  7  8  1  0  0  0  0 
  8  9  1  0  0  0  0 
  9 10  1  0  0  0  0 
 10 11  1  0  0  0  0 
 11 12  1  0  0  0  0 
 12 13  2  0  0  0  0 
 13 14  1  0  0  0  0 
 14 15  2  0  0  0  0 
 11 15  1  0  0  0  0 
  9 16  1  0  0  0  0 
 16 17  2  0  0  0  0 
 17 18  1  0  0  0  0 
 17 19  1  0  0  0  0 
 19 20  2  0  0  0  0 
 20 21  1  0  0  0  0 
 20 22  1  0  0  0  0 
 22 23  2  0  0  0  0 
 16 23  1  0  0  0  0 
  6 24  1  0  0  0  0 
 24 25  2  0  0  0  0 
  2 25  1  0  0  0  0 
M  END
> <SMILES>
ClC1=CC(Cl)=C(COC(CN2C=CN=C2)C2=C(Cl)C=C(Cl)C=C2)C=C1

$$$$

  CDK     06141809482D

 30 33  0  0  0  0  0  0  0  0999 V2000
   -6.9120  -15.0973    0.0000 C   0  0  0  0  0  0  0  0  0  0  0  0
   -5.9107  -13.9804    0.0000 O   0  0  0  0  0  0  0  0  0  0  0  0
   -4.4428  -14.2891    0.0000 C   0  0  0  0  0  0  0  0  0  0  0  0
   -3.9767  -15.7066    0.0000 C   0  0  0  0  0  0  0  0  0  0  0  0
   -2.5093  -16.0177    0.0000 C   0  0  0  0  0  0  0  0  0  0  0  0
   -1.5080  -14.9113    0.0000 C   0  0  0  0  0  0  0  0  0  0  0  0
   -1.9721  -13.4840    0.0000 C   0  0  0  0  0  0  0  0  0  0  0  0
   -3.4395  -13.1729    0.0000 C   0  0  0  0  0  0  0  0  0  0  0  0
   -3.9039  -11.7466    0.0000 O   0  0  0  0  0  0  0  0  0  0  0  0
   -2.9010  -10.6313    0.0000 C   0  0  0  0  0  0  0  0  0  0  0  0
   -3.3655   -9.2050    0.0000 C   0  0  0  0  0  0  0  0  0  0  0  0
   -2.3625   -8.0896    0.0000 N   0  0  0  0  0  0  0  0  0  0  0  0
   -2.8270   -6.6633    0.0000 C   0  0  0  0  0  0  0  0  0  0  0  0
   -1.8240   -5.5479    0.0000 C   0  0  0  0  0  0  0  0  0  0  0  0
   -0.3566   -5.8588    0.0000 O   0  0  0  0  0  0  0  0  0  0  0  0
   -2.2885   -4.1217    0.0000 C   0  0  0  0  0  0  0  0  0  0  0  0
   -1.2855   -3.0063    0.0000 O   0  0  0  0  0  0  0  0  0  0  0  0
   -1.7500   -1.5800    0.0000 C   0  0  0  0  0  0  0  0  0  0  0  0
   -3.2200   -1.2700    0.0000 C   0  0  0  0  0  0  0  0  0  0  0  0
   -3.6800    0.1600    0.0000 C   0  0  0  0  0  0  0  0  0  0  0  0
   -2.6800    1.2700    0.0000 C   0  0  0  0  0  0  0  0  0  0  0  0
   -1.2100    0.9600    0.0000 C   0  0  0  0  0  0  0  0  0  0  0  0
   -0.7500   -0.4700    0.0000 C   0  0  0  0  0  0  0  0  0  0  0  0
    0.7500   -0.4700    0.0000 C   0  0  0  0  0  0  0  0  0  0  0  0
    1.7500   -1.5800    0.0000 C   0  0  0  0  0  0  0  0  0  0  0  0
    3.2200   -1.2700    0.0000 C   0  0  0  0  0  0  0  0  0  0  0  0
    3.6800    0.1600    0.0000 C   0  0  0  0  0  0  0  0  0  0  0  0
    2.6800    1.2700    0.0000 C   0  0  0  0  0  0  0  0  0  0  0  0
    1.2100    0.9600    0.0000 C   0  0  0  0  0  0  0  0  0  0  0  0
   -0.0000    1.8400    0.0000 N   0  0  0  0  0  0  0  0  0  0  0  0
  1  2  1  0  0  0  0 
  2  3  1  0  0  0  0 
  3  4  2  0  0  0  0 
  4  5  1  0  0  0  0 
  5  6  2  0  0  0  0 
  6  7  1  0  0  0  0 
  7  8  2  0  0  0  0 
  3  8  1  0  0  0  0 
  8  9  1  0  0  0  0 
  9 10  1  0  0  0  0 
 10 11  1  0  0  0  0 
 11 12  1  0  0  0  0 
 12 13  1  0  0  0  0 
 13 14  1  0  0  0  0 
 14 15  1  0  0  0  0 
 14 16  1  0  0  0  0 
 16 17  1  0  0  0  0 
 17 18  1  0  0  0  0 
 18 19  2  0  0  0  0 
 19 20  1  0  0  0  0 
 20 21  2  0  0  0  0 
 21 22  1  0  0  0  0 
 22 23  2  0  0  0  0 
 18 23  1  0  0  0  0 
 23 24  1  0  0  0  0 
 24 25  2  0  0  0  0 
 25 26  1  0  0  0  0 
 26 27  2  0  0  0  0 
 27 28  1  0  0  0  0 
 28 29  2  0  0  0  0 
 24 29  1  0  0  0  0 
 29 30  1  0  0  0  0 
 22 30  1  0  0  0  0 
M  END
> <SMILES>
COC1=CC=CC=C1OCCNCC(O)COC1=CC=CC2=C1C1=CC=CC=C1N2

$$$$

  CDK     06141809482D

 29 32  0  0  0  0  0  0  0  0999 V2000
   -4.6218    3.3537    0.0000 O   0  0  0  0  0  0  0  0  0  0  0  0
   -3.7396    2.1406    0.0000 C   0  0  0  0  0  0  0  0  0  0  0  0
   -2.2396    2.1406    0.0000 C   0  0  0  0  0  0  0  0  0  0  0  0
   -1.3574    3.3537    0.0000 C   0  0  0  0  0  0  0  0  0  0  0  0
    0.1343    3.1963    0.0000 C   0  0  0  0  0  0  0  0  0  0  0  0
    1.0166    4.4094    0.0000 S   0  0  0  0  0  0  0  0  0  0  0  0
    0.4071    5.7800    0.0000 O   0  0  0  0  0  0  0  0  0  0  0  0
    2.5083    4.2520    0.0000 C   0  0  0  0  0  0  0  0  0  0  0  0
    3.3907    5.4650    0.0000 C   0  0  0  0  0  0  0  0  0  0  0  0
    4.8831    5.3067    0.0000 C   0  0  0  0  0  0  0  0  0  0  0  0
    5.4932    3.9354    0.0000 C   0  0  0  0  0  0  0  0  0  0  0  0
    4.6108    2.7225    0.0000 C   0  0  0  0  0  0  0  0  0  0  0  0
    3.1183    2.8807    0.0000 C   0  0  0  0  0  0  0  0  0  0  0  0
   -1.7796    0.7206    0.0000 C   0  0  0  0  0  0  0  0  0  0  0  0
   -0.3518    0.2606    0.0000 O   0  0  0  0  0  0  0  0  0  0  0  0
   -2.9896   -0.1694    0.0000 N   0  0  0  0  0  0  0  0  0  0  0  0
   -4.1996    0.7206    0.0000 N   0  0  0  0  0  0  0  0  0  0  0  0
   -5.6273    0.2606    0.0000 C   0  0  0  0  0  0  0  0  0  0  0  0
   -6.7398    1.2680    0.0000 C   0  0  0  0  0  0  0  0  0  0  0  0
   -8.1676    0.8080    0.0000 C   0  0  0  0  0  0  0  0  0  0  0  0
   -8.4828   -0.6593    0.0000 C   0  0  0  0  0  0  0  0  0  0  0  0
   -7.3703   -1.6667    0.0000 C   0  0  0  0  0  0  0  0  0  0  0  0
   -5.9425   -1.2067    0.0000 C   0  0  0  0  0  0  0  0  0  0  0  0
   -2.9896   -1.6694    0.0000 C   0  0  0  0  0  0  0  0  0  0  0  0
   -4.2896   -2.4194    0.0000 C   0  0  0  0  0  0  0  0  0  0  0  0
   -4.2896   -3.9194    0.0000 C   0  0  0  0  0  0  0  0  0  0  0  0
   -2.9896   -4.6694    0.0000 C   0  0  0  0  0  0  0  0  0  0  0  0
   -1.6896   -3.9194    0.0000 C   0  0  0  0  0  0  0  0  0  0  0  0
   -1.6896   -2.4194    0.0000 C   0  0  0  0  0  0  0  0  0  0  0  0
  1  2  2  0  0  0  0 
  2  3  1  0  0  0  0 
  3  4  1  0  0  0  0 
  4  5  1  0  0  0  0 
  5  6  1  0  0  0  0 
  6  7  2  0  0  0  0 
  6  8  1  0  0  0  0 
  8  9  2  0  0  0  0 
  9 10  1  0  0  0  0 
 10 11  2  0  0  0  0 
 11 12  1  0  0  0  0 
 12 13  2  0  0  0  0 
  8 13  1  0  0  0  0 
  3 14  1  0  0  0  0 
 14 15  2  0  0  0  0 
 14 16  1  0  0  0  0 
 16 17  1  0  0  0  0 
  2 17  1  0  0  0  0 
 17 18  1  0  0  0  0 
 18 19  2  0  0  0  0 
 19 20  1  0  0  0  0 
 20 21  2  0  0  0  0 
 21 22  1  0  0  0  0 
 22 23  2  0  0  0  0 
 18 23  1  0  0  0  0 
 16 24  1  0  0  0  0 
 24 25  2  0  0  0  0 
 25 26  1  0  0  0  0 
 26 27  2  0  0  0  0 
 27 28  1  0  0  0  0 
 28 29  2  0  0  0  0 
 24 29  1  0  0  0  0 
M  END
> <SMILES>
O=C1C(CCS(=O)C2=CC=CC=C2)C(=O)N(N1C1=CC=CC=C1)C1=CC=CC=C1

$$$$

  CDK     06141809482D

 22 24  0  0  0  0  0  0  0  0999 V2000
   -1.2990   -3.3900    0.0000 H   0  0  0  0  0  0  0  0  0  0  0  0
   -0.0000   -2.6400    0.0000 C   0  0  0  0  0  0  0  0  0  0  0  0
    1.2990   -3.3900    0.0000 C   0  0  0  0  0  0  0  0  0  0  0  0
    1.2990   -4.8900    0.0000 C   0  0  0  0  0  0  0  0  0  0  0  0
    2.5981   -5.6400    0.0000 N   0  0  0  0  0  0  0  0  0  0  0  0
    2.5981   -7.1400    0.0000 C   0  0  0  0  0  0  0  0  0  0  0  0
    3.8971   -4.8900    0.0000 C   0  0  0  0  0  0  0  0  0  0  0  0
   -0.0000   -1.1400    0.0000 C   0  0  0  0  0  0  0  0  0  0  0  0
   -1.3500   -0.4900    0.0000 C   0  0  0  0  0  0  0  0  0  0  0  0
   -2.4500   -1.5100    0.0000 C   0  0  0  0  0  0  0  0  0  0  0  0
   -3.8800   -1.0600    0.0000 C   0  0  0  0  0  0  0  0  0  0  0  0
   -4.2200    0.4000    0.0000 C   0  0  0  0  0  0  0  0  0  0  0  0
   -3.1200    1.4200    0.0000 C   0  0  0  0  0  0  0  0  0  0  0  0
   -1.6900    0.9800    0.0000 C   0  0  0  0  0  0  0  0  0  0  0  0
   -0.7500    2.1500    0.0000 C   0  0  0  0  0  0  0  0  0  0  0  0
    0.7500    2.1500    0.0000 O   0  0  0  0  0  0  0  0  0  0  0  0
    1.6900    0.9800    0.0000 C   0  0  0  0  0  0  0  0  0  0  0  0
    3.1200    1.4200    0.0000 C   0  0  0  0  0  0  0  0  0  0  0  0
    4.2200    0.4000    0.0000 C   0  0  0  0  0  0  0  0  0  0  0  0
    3.8800   -1.0600    0.0000 C   0  0  0  0  0  0  0  0  0  0  0  0
    2.4500   -1.5100    0.0000 C   0  0  0  0  0  0  0  0  0  0  0  0
    1.3500   -0.4900    0.0000 C   0  0  0  0  0  0  0  0  0  0  0  0
  1  2  1  4  0  0  0 
  2  3  1  0  0  0  0 
  3  4  1  0  0  0  0 
  4  5  1  0  0  0  0 
  5  6  1  0  0  0  0 
  5  7  1  0  0  0  0 
  2  8  2  0  0  0  0 
  8  9  1  0  0  0  0 
  9 10  2  0  0  0  0 
 10 11  1  0  0  0  0 
 11 12  2  0  0  0  0 
 12 13  1  0  0  0  0 
 13 14  2  0  0  0  0 
  9 14  1  0  0  0  0 
 14 15  1  0  0  0  0 
 15 16  1  0  0  0  0 
 16 17  1  0  0  0  0 
 17 18  2  0  0  0  0 
 18 19  1  0  0  0  0 
 19 20  2  0  0  0  0 
 20 21  1  0  0  0  0 
 21 22  2  0  0  0  0 
  8 22  1  0  0  0  0 
 17 22  1  0  0  0  0 
M  END
> <SMILES>
[H]C(CCN(C)C)=C1C2=CC=CC=C2COC2=CC=CC=C12

$$$$

  CDK     06141809482D

 33 36  0  0  0  0  0  0  0  0999 V2000
   -9.3998   -3.8092    0.0000 C   0  0  0  0  0  0  0  0  0  0  0  0
   -8.7903   -2.4386    0.0000 C   0  0  0  0  0  0  0  0  0  0  0  0
   -7.2986   -2.2812    0.0000 C   0  0  0  0  0  0  0  0  0  0  0  0
   -6.2988   -3.3895    0.0000 N   0  0  0  0  0  0  0  0  0  0  0  0
   -4.9231   -2.7866    0.0000 N   0  0  0  0  0  0  0  0  0  0  0  0
   -3.6240   -3.5366    0.0000 C   0  0  0  0  0  0  0  0  0  0  0  0
   -2.3250   -2.7866    0.0000 C   0  0  0  0  0  0  0  0  0  0  0  0
   -1.0260   -3.5366    0.0000 C   0  0  0  0  0  0  0  0  0  0  0  0
    0.2731   -2.7866    0.0000 N   0  0  0  0  0  0  0  0  0  0  0  0
    1.5730   -3.5368    0.0000 C   0  0  0  0  0  0  0  0  0  0  0  0
    2.8731   -2.7871    0.0000 C   0  0  0  0  0  0  0  0  0  0  0  0
    2.8733   -1.2871    0.0000 N   0  0  0  0  0  0  0  0  0  0  0  0
    1.5734   -0.5368    0.0000 C   0  0  0  0  0  0  0  0  0  0  0  0
    0.2733   -1.2866    0.0000 C   0  0  0  0  0  0  0  0  0  0  0  0
    4.1724   -0.5371    0.0000 C   0  0  0  0  0  0  0  0  0  0  0  0
    4.1744    0.9638    0.0000 C   0  0  0  0  0  0  0  0  0  0  0  0
    5.4747    1.7116    0.0000 C   0  0  0  0  0  0  0  0  0  0  0  0
    5.4774    3.2116    0.0000 Cl  0  0  0  0  0  0  0  0  0  0  0  0
    6.7729    0.9586    0.0000 C   0  0  0  0  0  0  0  0  0  0  0  0
    6.7659   -0.5336    0.0000 C   0  0  0  0  0  0  0  0  0  0  0  0
    5.4656   -1.2814    0.0000 C   0  0  0  0  0  0  0  0  0  0  0  0
   -5.0888   -1.2937    0.0000 C   0  0  0  0  0  0  0  0  0  0  0  0
   -3.9766   -0.2873    0.0000 O   0  0  0  0  0  0  0  0  0  0  0  0
   -6.5486   -0.9821    0.0000 N   0  0  0  0  0  0  0  0  0  0  0  0
   -7.1581    0.3885    0.0000 C   0  0  0  0  0  0  0  0  0  0  0  0
   -8.6498    0.5459    0.0000 C   0  0  0  0  0  0  0  0  0  0  0  0
   -9.2593    1.9165    0.0000 O   0  0  0  0  0  0  0  0  0  0  0  0
  -10.7510    2.0740    0.0000 C   0  0  0  0  0  0  0  0  0  0  0  0
  -11.3611    3.4452    0.0000 C   0  0  0  0  0  0  0  0  0  0  0  0
  -12.8535    3.6035    0.0000 C   0  0  0  0  0  0  0  0  0  0  0  0
  -13.7360    2.3905    0.0000 C   0  0  0  0  0  0  0  0  0  0  0  0
  -13.1259    1.0192    0.0000 C   0  0  0  0  0  0  0  0  0  0  0  0
  -11.6334    0.8610    0.0000 C   0  0  0  0  0  0  0  0  0  0  0  0
  1  2  1  0  0  0  0 
  2  3  1  0  0  0  0 
  3  4  2  0  0  0  0 
  4  5  1  0  0  0  0 
  5  6  1  0  0  0  0 
  6  7  1  0  0  0  0 
  7  8  1  0  0  0  0 
  8  9  1  0  0  0  0 
  9 10  1  0  0  0  0 
 10 11  1  0  0  0  0 
 11 12  1  0  0  0  0 
 12 13  1  0  0  0  0 
 13 14  1  0  0  0  0 
  9 14  1  0  0  0  0 
 12 15  1  0  0  0  0 
 15 16  2  0  0  0  0 
 16 17  1  0  0  0  0 
 17 18  1  0  0  0  0 
 17 19  2  0  0  0  0 
 19 20  1  0  0  0  0 
 20 21  2  0  0  0  0 
 15 21  1  0  0  0  0 
  5 22  1  0  0  0  0 
 22 23  2  0  0  0  0 
 22 24  1  0  0  0  0 
  3 24  1  0  0  0  0 
 24 25  1  0  0  0  0 
 25 26  1  0  0  0  0 
 26 27  1  0  0  0  0 
 27 28  1  0  0  0  0 
 28 29  2  0  0  0  0 
 29 30  1  0  0  0  0 
 30 31  2  0  0  0  0 
 31 32  1  0  0  0  0 
 32 33  2  0  0  0  0 
 28 33  1  0  0  0  0 
M  END
> <SMILES>
CCC1=NN(CCCN2CCN(CC2)C2=CC(Cl)=CC=C2)C(=O)N1CCOC1=CC=CC=C1

$$$$

  CDK     06141809482D

 20 22  0  0  0  0  0  0  0  0999 V2000
    2.5981   -7.1400    0.0000 C   0  0  0  0  0  0  0  0  0  0  0  0
    2.5981   -5.6400    0.0000 N   0  0  0  0  0  0  0  0  0  0  0  0
    1.2990   -4.8900    0.0000 C   0  0  0  0  0  0  0  0  0  0  0  0
    1.2990   -3.3900    0.0000 C   0  0  0  0  0  0  0  0  0  0  0  0
   -0.0000   -2.6400    0.0000 C   0  0  0  0  0  0  0  0  0  0  0  0
    0.0000   -1.1400    0.0000 N   0  0  0  0  0  0  0  0  0  0  0  0
    1.3500   -0.4900    0.0000 C   0  0  0  0  0  0  0  0  0  0  0  0
    2.4500   -1.5100    0.0000 C   0  0  0  0  0  0  0  0  0  0  0  0
    3.8800   -1.0600    0.0000 C   0  0  0  0  0  0  0  0  0  0  0  0
    4.2200    0.4000    0.0000 C   0  0  0  0  0  0  0  0  0  0  0  0
    3.1200    1.4200    0.0000 C   0  0  0  0  0  0  0  0  0  0  0  0
    1.6900    0.9800    0.0000 C   0  0  0  0  0  0  0  0  0  0  0  0
    0.7500    2.1500    0.0000 C   0  0  0  0  0  0  0  0  0  0  0  0
   -0.7500    2.1500    0.0000 C   0  0  0  0  0  0  0  0  0  0  0  0
   -1.6900    0.9800    0.0000 C   0  0  0  0  0  0  0  0  0  0  0  0
   -3.1200    1.4200    0.0000 C   0  0  0  0  0  0  0  0  0  0  0  0
   -4.2200    0.4000    0.0000 C   0  0  0  0  0  0  0  0  0  0  0  0
   -3.8800   -1.0600    0.0000 C   0  0  0  0  0  0  0  0  0  0  0  0
   -2.4500   -1.5100    0.0000 C   0  0  0  0  0  0  0  0  0  0  0  0
   -1.3500   -0.4900    0.0000 C   0  0  0  0  0  0  0  0  0  0  0  0
  1  2  1  0  0  0  0 
  2  3  1  0  0  0  0 
  3  4  1  0  0  0  0 
  4  5  1  0  0  0  0 
  5  6  1  0  0  0  0 
  6  7  1  0  0  0  0 
  7  8  2  0  0  0  0 
  8  9  1  0  0  0  0 
  9 10  2  0  0  0  0 
 10 11  1  0  0  0  0 
 11 12  2  0  0  0  0 
  7 12  1  0  0  0  0 
 12 13  1  0  0  0  0 
 13 14  1  0  0  0  0 
 14 15  1  0  0  0  0 
 15 16  2  0  0  0  0 
 16 17  1  0  0  0  0 
 17 18  2  0  0  0  0 
 18 19  1  0  0  0  0 
 19 20  2  0  0  0  0 
  6 20  1  0  0  0  0 
 15 20  1  0  0  0  0 
M  END
> <SMILES>
CNCCCN1C2=CC=CC=C2CCC2=CC=CC=C12

$$$$

  CDK     06141809482D

 28 31  0  0  0  0  0  0  0  0999 V2000
   -5.1981    0.7504    0.0000 C   0  0  0  0  0  0  0  0  0  0  0  0
   -3.8989    1.5002    0.0000 O   0  0  0  0  0  0  0  0  0  0  0  0
   -2.6000    0.7500    0.0000 C   0  0  0  0  0  0  0  0  0  0  0  0
   -2.6000   -0.7500    0.0000 C   0  0  0  0  0  0  0  0  0  0  0  0
   -3.8989   -1.5002    0.0000 O   0  0  0  0  0  0  0  0  0  0  0  0
   -5.1981   -0.7504    0.0000 C   0  0  0  0  0  0  0  0  0  0  0  0
   -1.3000   -1.5000    0.0000 C   0  0  0  0  0  0  0  0  0  0  0  0
    0.0000   -0.7500    0.0000 C   0  0  0  0  0  0  0  0  0  0  0  0
    1.3000   -1.5000    0.0000 C   0  0  0  0  0  0  0  0  0  0  0  0
    1.3000   -3.0000    0.0000 N   0  0  0  0  0  0  0  0  0  0  0  0
    2.6000   -0.7500    0.0000 N   0  0  0  0  0  0  0  0  0  0  0  0
    2.6000    0.7500    0.0000 C   0  0  0  0  0  0  0  0  0  0  0  0
    1.3000    1.5000    0.0000 N   0  0  0  0  0  0  0  0  0  0  0  0
    0.0000    0.7500    0.0000 C   0  0  0  0  0  0  0  0  0  0  0  0
   -1.3000    1.5000    0.0000 C   0  0  0  0  0  0  0  0  0  0  0  0
    3.8989    1.5002    0.0000 N   0  0  0  0  0  0  0  0  0  0  0  0
    5.1989    0.7502    0.0000 C   0  0  0  0  0  0  0  0  0  0  0  0
    6.4989    1.5002    0.0000 C   0  0  0  0  0  0  0  0  0  0  0  0
    6.4989    3.0002    0.0000 N   0  0  0  0  0  0  0  0  0  0  0  0
    5.1989    3.7502    0.0000 C   0  0  0  0  0  0  0  0  0  0  0  0
    3.8989    3.0002    0.0000 C   0  0  0  0  0  0  0  0  0  0  0  0
    7.7978    3.7504    0.0000 C   0  0  0  0  0  0  0  0  0  0  0  0
    7.7976    5.2504    0.0000 O   0  0  0  0  0  0  0  0  0  0  0  0
    9.0970    3.0006    0.0000 C   0  0  0  0  0  0  0  0  0  0  0  0
   10.4660    3.6031    0.0000 C   0  0  0  0  0  0  0  0  0  0  0  0
   11.4711    2.4896    0.0000 C   0  0  0  0  0  0  0  0  0  0  0  0
   10.7251    1.1967    0.0000 C   0  0  0  0  0  0  0  0  0  0  0  0
    9.2611    1.5053    0.0000 O   0  0  0  0  0  0  0  0  0  0  0  0
  1  2  1  0  0  0  0 
  2  3  1  0  0  0  0 
  3  4  2  0  0  0  0 
  4  5  1  0  0  0  0 
  5  6  1  0  0  0  0 
  4  7  1  0  0  0  0 
  7  8  2  0  0  0  0 
  8  9  1  0  0  0  0 
  9 10  1  0  0  0  0 
  9 11  2  0  0  0  0 
 11 12  1  0  0  0  0 
 12 13  2  0  0  0  0 
 13 14  1  0  0  0  0 
  8 14  1  0  0  0  0 
 14 15  2  0  0  0  0 
  3 15  1  0  0  0  0 
 12 16  1  0  0  0  0 
 16 17  1  0  0  0  0 
 17 18  1  0  0  0  0 
 18 19  1  0  0  0  0 
 19 20  1  0  0  0  0 
 20 21  1  0  0  0  0 
 16 21  1  0  0  0  0 
 19 22  1  0  0  0  0 
 22 23  2  0  0  0  0 
 22 24  1  0  0  0  0 
 24 25  1  0  0  0  0 
 25 26  1  0  0  0  0 
 26 27  1  0  0  0  0 
 27 28  1  0  0  0  0 
 24 28  1  0  0  0  0 
M  END
> <SMILES>
COC1=C(OC)C=C2C(N)=NC(=NC2=C1)N1CCN(CC1)C(=O)C1CCCO1

$$$$

  CDK     06141809482D

 49 55  0  0  1  0  0  0  0  0999 V2000
    8.8684   -4.2802    0.0000 C   0  0  0  0  0  0  0  0  0  0  0  0
    7.4020   -3.9647    0.0000 C   0  0  0  0  0  0  0  0  0  0  0  0
    6.3955   -5.0769    0.0000 C   0  0  0  0  0  0  0  0  0  0  0  0
    6.8555   -6.5046    0.0000 C   0  0  0  0  0  0  0  0  0  0  0  0
    4.9290   -4.7614    0.0000 N   0  0  0  0  0  0  0  0  0  0  0  0
    4.3262   -3.3856    0.0000 N   0  0  0  0  0  0  0  0  0  0  0  0
    2.8333   -3.5514    0.0000 C   0  0  0  0  0  0  0  0  0  0  0  0
    2.5216   -5.0111    0.0000 N   0  0  0  0  0  0  0  0  0  0  0  0
    3.8207   -5.7611    0.0000 C   0  0  0  0  0  0  0  0  0  0  0  0
    3.9781   -7.2528    0.0000 O   0  0  0  0  0  0  0  0  0  0  0  0
    1.1510   -5.6206    0.0000 C   0  0  0  0  0  0  0  0  0  0  0  0
   -0.0464   -4.7386    0.0000 C   0  0  0  0  0  0  0  0  0  0  0  0
   -1.4201   -5.3659    0.0000 C   0  0  0  0  0  0  0  0  0  0  0  0
   -1.5729   -6.8540    0.0000 C   0  0  0  0  0  0  0  0  0  0  0  0
   -0.3480   -7.7239    0.0000 C   0  0  0  0  0  0  0  0  0  0  0  0
    1.0022   -7.1178    0.0000 C   0  0  0  0  0  0  0  0  0  0  0  0
   -2.9392   -7.4731    0.0000 N   0  0  0  0  0  0  0  0  0  0  0  0
   -4.1593   -6.5991    0.0000 C   0  0  0  0  0  0  0  0  0  0  0  0
   -5.5266   -7.2179    0.0000 C   0  0  0  0  0  0  0  0  0  0  0  0
   -5.6738   -8.7107    0.0000 N   0  0  0  0  0  0  0  0  0  0  0  0
   -4.4537   -9.5846    0.0000 C   0  0  0  0  0  0  0  0  0  0  0  0
   -3.0864   -8.9658    0.0000 C   0  0  0  0  0  0  0  0  0  0  0  0
   -7.0401   -9.3298    0.0000 C   0  0  0  0  0  0  0  0  0  0  0  0
   -7.1873  -10.8225    0.0000 C   0  0  0  0  0  0  0  0  0  0  0  0
   -8.5547  -11.4413    0.0000 C   0  0  0  0  0  0  0  0  0  0  0  0
   -9.7748  -10.5673    0.0000 C   0  0  0  0  0  0  0  0  0  0  0  0
  -11.1411  -11.1864    0.0000 O   0  0  0  0  0  0  0  0  0  0  0  0
  -12.3604  -10.3128    0.0000 C   0  0  0  0  0  0  0  0  0  0  0  0
  -13.7266  -10.9319    0.0000 C   0  0  1  0  0  0  0  0  0  0  0  0
  -15.0306  -10.1904    0.0000 C   0  0  0  0  0  0  0  0  0  0  0  0
  -16.1387  -11.2014    0.0000 O   0  0  0  0  0  0  0  0  0  0  0  0
  -15.5196  -12.5677    0.0000 C   0  0  1  0  0  0  0  0  0  0  0  0
  -16.9431  -13.0406    0.0000 C   0  0  0  0  0  0  0  0  0  0  0  0
  -18.0644  -12.0443    0.0000 N   0  0  0  0  0  0  0  0  0  0  0  0
  -17.9131  -10.5593    0.0000 C   0  0  0  0  0  0  0  0  0  0  0  0
  -19.2859   -9.9548    0.0000 N   0  0  0  0  0  0  0  0  0  0  0  0
  -20.2791  -11.0690    0.0000 C   0  0  0  0  0  0  0  0  0  0  0  0
  -19.5304  -12.3711    0.0000 N   0  0  0  0  0  0  0  0  0  0  0  0
  -14.0288  -12.4011    0.0000 O   0  0  0  0  0  0  0  0  0  0  0  0
  -15.1981  -14.0328    0.0000 C   0  0  0  0  0  0  0  0  0  0  0  0
  -13.7677  -14.4875    0.0000 C   0  0  0  0  0  0  0  0  0  0  0  0
  -12.6598  -13.4763    0.0000 Cl  0  0  0  0  0  0  0  0  0  0  0  0
  -13.4453  -15.9533    0.0000 C   0  0  0  0  0  0  0  0  0  0  0  0
  -14.5533  -16.9644    0.0000 C   0  0  0  0  0  0  0  0  0  0  0  0
  -14.2318  -18.4296    0.0000 Cl  0  0  0  0  0  0  0  0  0  0  0  0
  -15.9836  -16.5098    0.0000 C   0  0  0  0  0  0  0  0  0  0  0  0
  -16.3060  -15.0440    0.0000 C   0  0  0  0  0  0  0  0  0  0  0  0
   -9.6276   -9.0746    0.0000 C   0  0  0  0  0  0  0  0  0  0  0  0
   -8.2602   -8.4558    0.0000 C   0  0  0  0  0  0  0  0  0  0  0  0
  1  2  1  0  0  0  0 
  2  3  1  0  0  0  0 
  3  4  1  0  0  0  0 
  3  5  1  0  0  0  0 
  5  6  1  0  0  0  0 
  6  7  2  0  0  0  0 
  7  8  1  0  0  0  0 
  8  9  1  0  0  0  0 
  5  9  1  0  0  0  0 
  9 10  2  0  0  0  0 
  8 11  1  0  0  0  0 
 11 12  2  0  0  0  0 
 12 13  1  0  0  0  0 
 13 14  2  0  0  0  0 
 14 15  1  0  0  0  0 
 15 16  2  0  0  0  0 
 11 16  1  0  0  0  0 
 14 17  1  0  0  0  0 
 17 18  1  0  0  0  0 
 18 19  1  0  0  0  0 
 19 20  1  0  0  0  0 
 20 21  1  0  0  0  0 
 21 22  1  0  0  0  0 
 17 22  1  0  0  0  0 
 20 23  1  0  0  0  0 
 23 24  2  0  0  0  0 
 24 25  1  0  0  0  0 
 25 26  2  0  0  0  0 
 26 27  1  0  0  0  0 
 27 28  1  0  0  0  0 
 29 28  1  6  0  0  0 
 29 30  1  0  0  0  0 
 30 31  1  0  0  0  0 
 31 32  1  0  0  0  0 
 32 33  1  6  0  0  0 
 33 34  1  0  0  0  0 
 34 35  1  0  0  0  0 
 35 36  2  0  0  0  0 
 36 37  1  0  0  0  0 
 37 38  2  0  0  0  0 
 34 38  1  0  0  0  0 
 32 39  1  0  0  0  0 
 29 39  1  0  0  0  0 
 32 40  1  1  0  0  0 
 40 41  2  0  0  0  0 
 41 42  1  0  0  0  0 
 41 43  1  0  0  0  0 
 43 44  2  0  0  0  0 
 44 45  1  0  0  0  0 
 44 46  1  0  0  0  0 
 46 47  2  0  0  0  0 
 40 47  1  0  0  0  0 
 26 48  1  0  0  0  0 
 48 49  2  0  0  0  0 
 23 49  1  0  0  0  0 
M  END
> <SMILES>
CCC(C)N1N=CN(C1=O)C1=CC=C(C=C1)N1CCN(CC1)C1=CC=C(OC[C@H]2CO[C@@](CN3C=NC=N3)(O2)C2=C(Cl)C=C(Cl)C=C2)C=C1

$$$$

  CDK     06141809482D

  5  4  0  0  0  0  0  0  0  0999 V2000
    0.0000    0.0000    0.0000 O   0  0  0  0  0  0  0  0  0  0  0  0
    1.2990   -0.7500    0.0000 As  0  0  0  0  0  0  0  0  0  0  0  0
    2.5981   -0.0000    0.0000 O   0  0  0  0  0  0  0  0  0  0  0  0
    3.8971   -0.7500    0.0000 As  0  0  0  0  0  0  0  0  0  0  0  0
    5.1962   -0.0000    0.0000 O   0  0  0  0  0  0  0  0  0  0  0  0
  1  2  2  0  0  0  0 
  2  3  1  0  0  0  0 
  3  4  1  0  0  0  0 
  4  5  2  0  0  0  0 
M  END
> <SMILES>
O=[As]O[As]=O

$$$$

  CDK     06141809482D

 17 18  0  0  0  0  0  0  0  0999 V2000
    2.9767   -1.5899    0.0000 C   0  0  0  0  0  0  0  0  0  0  0  0
    2.0126   -2.7391    0.0000 C   0  0  0  0  0  0  0  0  0  0  0  0
    0.5354   -2.4787    0.0000 C   0  0  0  0  0  0  0  0  0  0  0  0
    0.5354   -3.9787    0.0000 C   0  0  0  0  0  0  0  0  0  0  0  0
    1.8343   -4.7289    0.0000 O   0  0  0  0  0  0  0  0  0  0  0  0
   -0.7646   -4.7287    0.0000 N   0  0  0  0  0  0  0  0  0  0  0  0
   -2.0646   -3.9787    0.0000 C   0  0  0  0  0  0  0  0  0  0  0  0
   -3.3635   -4.7289    0.0000 O   0  0  0  0  0  0  0  0  0  0  0  0
   -2.0646   -2.4787    0.0000 N   0  0  0  0  0  0  0  0  0  0  0  0
   -0.7646   -1.7287    0.0000 C   0  0  0  0  0  0  0  0  0  0  0  0
   -0.7646   -0.2287    0.0000 O   0  0  0  0  0  0  0  0  0  0  0  0
    1.0481   -1.0691    0.0000 C   0  0  0  0  0  0  0  0  0  0  0  0
    0.0828    0.0801    0.0000 C   0  0  0  0  0  0  0  0  0  0  0  0
    0.5955    1.4897    0.0000 C   0  0  0  0  0  0  0  0  0  0  0  0
    2.0736    1.7502    0.0000 C   0  0  0  0  0  0  0  0  0  0  0  0
    3.0389    0.6010    0.0000 C   0  0  0  0  0  0  0  0  0  0  0  0
    2.5262   -0.8086    0.0000 C   0  0  0  0  0  0  0  0  0  0  0  0
  1  2  1  0  0  0  0 
  2  3  1  0  0  0  0 
  3  4  1  0  0  0  0 
  4  5  2  0  0  0  0 
  4  6  1  0  0  0  0 
  6  7  1  0  0  0  0 
  7  8  2  0  0  0  0 
  7  9  1  0  0  0  0 
  9 10  1  0  0  0  0 
  3 10  1  0  0  0  0 
 10 11  2  0  0  0  0 
  3 12  1  0  0  0  0 
 12 13  2  0  0  0  0 
 13 14  1  0  0  0  0 
 14 15  2  0  0  0  0 
 15 16  1  0  0  0  0 
 16 17  2  0  0  0  0 
 12 17  1  0  0  0  0 
M  END
> <SMILES>
CCC1(C(=O)NC(=O)NC1=O)C1=CC=CC=C1

$$$$

  CDK     06141809482D

 25 26  0  0  0  0  0  0  0  0999 V2000
   -7.7957    0.3747    0.0000 C   0  0  0  0  0  0  0  0  0  0  0  0
   -6.4968   -0.3755    0.0000 C   0  0  0  0  0  0  0  0  0  0  0  0
   -5.1977    0.3743    0.0000 C   0  0  0  0  0  0  0  0  0  0  0  0
   -3.8987   -0.3759    0.0000 N   0  0  0  0  0  0  0  0  0  0  0  0
   -2.5996    0.3739    0.0000 C   0  0  0  0  0  0  0  0  0  0  0  0
   -1.3007   -0.3764    0.0000 C   0  0  0  0  0  0  0  0  0  0  0  0
   -1.3009   -1.8764    0.0000 O   0  0  0  0  0  0  0  0  0  0  0  0
   -0.0015    0.3734    0.0000 C   0  0  0  0  0  0  0  0  0  0  0  0
    1.2974   -0.3768    0.0000 O   0  0  0  0  0  0  0  0  0  0  0  0
    2.5966    0.3730    0.0000 C   0  0  0  0  0  0  0  0  0  0  0  0
    2.5971    1.8739    0.0000 C   0  0  0  0  0  0  0  0  0  0  0  0
    3.8966    2.6247    0.0000 C   0  0  0  0  0  0  0  0  0  0  0  0
    5.1956    1.8747    0.0000 C   0  0  0  0  0  0  0  0  0  0  0  0
    5.1951    0.3739    0.0000 C   0  0  0  0  0  0  0  0  0  0  0  0
    3.8956   -0.3770    0.0000 C   0  0  0  0  0  0  0  0  0  0  0  0
    3.8959   -1.8770    0.0000 C   0  0  0  0  0  0  0  0  0  0  0  0
    2.5969   -2.6272    0.0000 O   0  0  0  0  0  0  0  0  0  0  0  0
    5.1950   -2.6268    0.0000 C   0  0  0  0  0  0  0  0  0  0  0  0
    6.4939   -1.8766    0.0000 C   0  0  0  0  0  0  0  0  0  0  0  0
    7.7931   -2.6264    0.0000 C   0  0  0  0  0  0  0  0  0  0  0  0
    9.0925   -1.8753    0.0000 C   0  0  0  0  0  0  0  0  0  0  0  0
   10.3916   -2.6251    0.0000 C   0  0  0  0  0  0  0  0  0  0  0  0
   10.3914   -4.1259    0.0000 C   0  0  0  0  0  0  0  0  0  0  0  0
    9.0920   -4.8770    0.0000 C   0  0  0  0  0  0  0  0  0  0  0  0
    7.7928   -4.1272    0.0000 C   0  0  0  0  0  0  0  0  0  0  0  0
  1  2  1  0  0  0  0 
  2  3  1  0  0  0  0 
  3  4  1  0  0  0  0 
  4  5  1  0  0  0  0 
  5  6  1  0  0  0  0 
  6  7  1  0  0  0  0 
  6  8  1  0  0  0  0 
  8  9  1  0  0  0  0 
  9 10  1  0  0  0  0 
 10 11  2  0  0  0  0 
 11 12  1  0  0  0  0 
 12 13  2  0  0  0  0 
 13 14  1  0  0  0  0 
 14 15  2  0  0  0  0 
 10 15  1  0  0  0  0 
 15 16  1  0  0  0  0 
 16 17  2  0  0  0  0 
 16 18  1  0  0  0  0 
 18 19  1  0  0  0  0 
 19 20  1  0  0  0  0 
 20 21  2  0  0  0  0 
 21 22  1  0  0  0  0 
 22 23  2  0  0  0  0 
 23 24  1  0  0  0  0 
 24 25  2  0  0  0  0 
 20 25  1  0  0  0  0 
M  END
> <SMILES>
CCCNCC(O)COC1=CC=CC=C1C(=O)CCC1=CC=CC=C1

$$$$

  CDK     06141809482D

 24 28  0  0  1  0  0  0  0  0999 V2000
   -3.2702    3.9780    0.0000 O   0  0  0  0  0  0  0  0  0  0  0  0
   -1.9700    3.2300    0.0000 C   0  0  0  0  0  0  0  0  0  0  0  0
   -0.6800    3.9800    0.0000 C   0  0  0  0  0  0  0  0  0  0  0  0
    0.6200    3.2300    0.0000 C   0  0  0  0  0  0  0  0  0  0  0  0
    0.6200    1.7400    0.0000 C   0  0  0  0  0  0  0  0  0  0  0  0
    1.9200    0.9800    0.0000 C   0  0  0  0  0  0  0  0  0  0  0  0
    1.9200   -0.5200    0.0000 C   0  0  1  0  0  0  0  0  0  0  0  0
    3.2200   -1.2600    0.0000 N   0  0  0  0  0  0  0  0  0  0  0  0
    3.8114   -2.6385    0.0000 C   0  0  0  0  0  0  0  0  0  0  0  0
    5.3009   -2.8156    0.0000 C   0  0  0  0  0  0  0  0  0  0  0  0
    5.8923   -4.1941    0.0000 C   0  0  0  0  0  0  0  0  0  0  0  0
    3.2500    0.2300    0.0000 C   0  0  0  0  0  0  0  0  0  0  0  0
    0.6200    0.2300    0.0000 C   0  0  0  0  0  0  0  0  0  0  0  0
   -0.6800   -0.5200    0.0000 C   0  0  1  0  0  0  0  0  0  0  0  0
   -1.9700   -1.2600    0.0000 C   0  0  1  0  0  0  0  0  0  0  0  0
   -2.9400    0.3100    0.0000 O   0  0  0  0  0  0  0  0  0  0  0  0
   -1.9700    1.7400    0.0000 C   0  0  0  0  0  0  0  0  0  0  0  0
   -0.6800    0.9800    0.0000 C   0  0  0  0  0  0  0  0  0  0  0  0
   -1.9700   -2.7700    0.0000 C   0  0  0  0  0  0  0  0  0  0  0  0
   -3.2702   -3.5180    0.0000 O   0  0  0  0  0  0  0  0  0  0  0  0
   -0.6800   -3.5200    0.0000 C   0  0  0  0  0  0  0  0  0  0  0  0
    0.6200   -2.7700    0.0000 C   0  0  0  0  0  0  0  0  0  0  0  0
    0.6200   -1.2600    0.0000 C   0  0  1  0  0  0  0  0  0  0  0  0
    1.9167   -2.0140    0.0000 O   0  0  0  0  0  0  0  0  0  0  0  0
  1  2  1  0  0  0  0 
  2  3  2  0  0  0  0 
  3  4  1  0  0  0  0 
  4  5  2  0  0  0  0 
  5  6  1  0  0  0  0 
  6  7  1  0  0  0  0 
  7  8  1  1  0  0  0 
  8  9  1  0  0  0  0 
  9 10  1  0  0  0  0 
 10 11  2  0  0  0  0 
  8 12  1  0  0  0  0 
 12 13  1  0  0  0  0 
 14 13  1  1  0  0  0 
 14 15  1  0  0  0  0 
 15 16  1  6  0  0  0 
 16 17  1  0  0  0  0 
  2 17  1  0  0  0  0 
 17 18  2  0  0  0  0 
  5 18  1  0  0  0  0 
 14 18  1  6  0  0  0 
 15 19  1  0  0  0  0 
 19 20  2  0  0  0  0 
 19 21  1  0  0  0  0 
 21 22  1  0  0  0  0 
 22 23  1  0  0  0  0 
  7 23  1  0  0  0  0 
 14 23  1  0  0  0  0 
 23 24  1  1  0  0  0 
M  END
> <SMILES>
OC1=CC=C2C[C@H]3N(CC=C)CC[C@@]45[C@@H](OC1=C24)C(=O)CC[C@@]35O

$$$$

  CDK     06141809482D

 30 34  0  0  0  0  0  0  0  0999 V2000
   -3.6089   -1.5002    0.0000 Cl  0  0  0  0  0  0  0  0  0  0  0  0
   -2.3100   -0.7500    0.0000 C   0  0  0  0  0  0  0  0  0  0  0  0
   -1.0100   -1.5000    0.0000 C   0  0  0  0  0  0  0  0  0  0  0  0
    0.2900   -0.7500    0.0000 C   0  0  0  0  0  0  0  0  0  0  0  0
    0.2900    0.7500    0.0000 C   0  0  0  0  0  0  0  0  0  0  0  0
   -1.0100    1.5000    0.0000 C   0  0  0  0  0  0  0  0  0  0  0  0
   -2.3100    0.7500    0.0000 C   0  0  0  0  0  0  0  0  0  0  0  0
    1.7200    1.2100    0.0000 N   0  0  0  0  0  0  0  0  0  0  0  0
    2.1853    2.6360    0.0000 C   0  0  0  0  0  0  0  0  0  0  0  0
    3.6538    2.9458    0.0000 C   0  0  0  0  0  0  0  0  0  0  0  0
    4.1191    4.3718    0.0000 C   0  0  0  0  0  0  0  0  0  0  0  0
    3.1158    5.4880    0.0000 N   0  0  0  0  0  0  0  0  0  0  0  0
    3.5811    6.9141    0.0000 C   0  0  0  0  0  0  0  0  0  0  0  0
    5.0487    7.2241    0.0000 C   0  0  0  0  0  0  0  0  0  0  0  0
    5.5140    8.6501    0.0000 C   0  0  0  0  0  0  0  0  0  0  0  0
    6.9816    8.9602    0.0000 N   0  0  0  0  0  0  0  0  0  0  0  0
    7.5895   10.3273    0.0000 C   0  0  0  0  0  0  0  0  0  0  0  0
    6.8395   11.6263    0.0000 O   0  0  0  0  0  0  0  0  0  0  0  0
    9.0774   10.1702    0.0000 N   0  0  0  0  0  0  0  0  0  0  0  0
    9.3940    8.7018    0.0000 C   0  0  0  0  0  0  0  0  0  0  0  0
   10.6935    7.9510    0.0000 C   0  0  0  0  0  0  0  0  0  0  0  0
   10.6940    6.4501    0.0000 C   0  0  0  0  0  0  0  0  0  0  0  0
    9.3950    5.7001    0.0000 C   0  0  0  0  0  0  0  0  0  0  0  0
    8.0954    6.4510    0.0000 C   0  0  0  0  0  0  0  0  0  0  0  0
    8.0950    7.9518    0.0000 C   0  0  0  0  0  0  0  0  0  0  0  0
    1.6473    5.1783    0.0000 C   0  0  0  0  0  0  0  0  0  0  0  0
    1.1820    3.7523    0.0000 C   0  0  0  0  0  0  0  0  0  0  0  0
    2.6000    0.0000    0.0000 C   0  0  0  0  0  0  0  0  0  0  0  0
    4.1000   -0.0000    0.0000 O   0  0  0  0  0  0  0  0  0  0  0  0
    1.7200   -1.2100    0.0000 N   0  0  0  0  0  0  0  0  0  0  0  0
  1  2  1  0  0  0  0 
  2  3  2  0  0  0  0 
  3  4  1  0  0  0  0 
  4  5  2  0  0  0  0 
  5  6  1  0  0  0  0 
  6  7  2  0  0  0  0 
  2  7  1  0  0  0  0 
  5  8  1  0  0  0  0 
  8  9  1  0  0  0  0 
  9 10  1  0  0  0  0 
 10 11  1  0  0  0  0 
 11 12  1  0  0  0  0 
 12 13  1  0  0  0  0 
 13 14  1  0  0  0  0 
 14 15  1  0  0  0  0 
 15 16  1  0  0  0  0 
 16 17  1  0  0  0  0 
 17 18  2  0  0  0  0 
 17 19  1  0  0  0  0 
 19 20  1  0  0  0  0 
 20 21  2  0  0  0  0 
 21 22  1  0  0  0  0 
 22 23  2  0  0  0  0 
 23 24  1  0  0  0  0 
 24 25  2  0  0  0  0 
 16 25  1  0  0  0  0 
 20 25  1  0  0  0  0 
 12 26  1  0  0  0  0 
 26 27  1  0  0  0  0 
  9 27  1  0  0  0  0 
  8 28  1  0  0  0  0 
 28 29  2  0  0  0  0 
 28 30  1  0  0  0  0 
  4 30  1  0  0  0  0 
M  END
> <SMILES>
ClC1=CC2=C(C=C1)N(C1CCN(CCCN3C(=O)NC4=CC=CC=C34)CC1)C(=O)N2

$$$$

  CDK     06141809482D

 24 24  0  0  0  0  0  0  0  0999 V2000
   10.4271   -1.8925    0.0000 C   0  0  0  0  0  0  0  0  0  0  0  0
    9.1280   -1.1425    0.0000 C   0  0  0  0  0  0  0  0  0  0  0  0
    7.8290   -1.8925    0.0000 C   0  0  0  0  0  0  0  0  0  0  0  0
    6.5300   -1.1425    0.0000 C   0  0  0  0  0  0  0  0  0  0  0  0
    6.5300    0.3575    0.0000 O   0  0  0  0  0  0  0  0  0  0  0  0
    5.2309   -1.8925    0.0000 N   0  0  0  0  0  0  0  0  0  0  0  0
    3.9319   -1.1425    0.0000 C   0  0  0  0  0  0  0  0  0  0  0  0
    2.6324   -1.8933    0.0000 C   0  0  0  0  0  0  0  0  0  0  0  0
    1.3333   -1.1433    0.0000 C   0  0  0  0  0  0  0  0  0  0  0  0
    0.0342   -1.8931    0.0000 C   0  0  0  0  0  0  0  0  0  0  0  0
   -1.2648   -1.1429    0.0000 C   0  0  0  0  0  0  0  0  0  0  0  0
    0.0339   -3.3931    0.0000 O   0  0  0  0  0  0  0  0  0  0  0  0
    1.3338    0.3575    0.0000 C   0  0  0  0  0  0  0  0  0  0  0  0
    0.0348    1.1075    0.0000 O   0  0  0  0  0  0  0  0  0  0  0  0
   -1.2643    0.3575    0.0000 C   0  0  0  0  0  0  0  0  0  0  0  0
   -2.5633    1.1075    0.0000 C   0  0  0  0  0  0  0  0  0  0  0  0
   -2.5633    2.6075    0.0000 O   0  0  0  0  0  0  0  0  0  0  0  0
   -3.8624    0.3575    0.0000 C   0  0  0  0  0  0  0  0  0  0  0  0
   -5.1614    1.1075    0.0000 N   0  0  0  0  0  0  0  0  0  0  0  0
   -6.4604    0.3575    0.0000 C   0  0  0  0  0  0  0  0  0  0  0  0
   -7.7595    1.1075    0.0000 C   0  0  0  0  0  0  0  0  0  0  0  0
   -6.4604   -1.1425    0.0000 C   0  0  0  0  0  0  0  0  0  0  0  0
    2.6333    1.1083    0.0000 C   0  0  0  0  0  0  0  0  0  0  0  0
    3.9324    0.3583    0.0000 C   0  0  0  0  0  0  0  0  0  0  0  0
  1  2  1  0  0  0  0 
  2  3  1  0  0  0  0 
  3  4  1  0  0  0  0 
  4  5  2  0  0  0  0 
  4  6  1  0  0  0  0 
  6  7  1  0  0  0  0 
  7  8  2  0  0  0  0 
  8  9  1  0  0  0  0 
  9 10  1  0  0  0  0 
 10 11  1  0  0  0  0 
 10 12  2  0  0  0  0 
  9 13  2  0  0  0  0 
 13 14  1  0  0  0  0 
 14 15  1  0  0  0  0 
 15 16  1  0  0  0  0 
 16 17  1  0  0  0  0 
 16 18  1  0  0  0  0 
 18 19  1  0  0  0  0 
 19 20  1  0  0  0  0 
 20 21  1  0  0  0  0 
 20 22  1  0  0  0  0 
 13 23  1  0  0  0  0 
 23 24  2  0  0  0  0 
  7 24  1  0  0  0  0 
M  END
> <SMILES>
CCCC(=O)NC1=CC(C(C)=O)=C(OCC(O)CNC(C)C)C=C1

$$$$

  CDK     06141809482D

 32 35  0  0  1  0  0  0  0  0999 V2000
    0.9638    1.0779    0.0000 H   0  0  0  0  0  0  0  0  0  0  0  0
    2.1800    0.2000    0.0000 C   0  0  2  0  0  0  0  0  0  0  0  0
    3.6100   -0.2600    0.0000 C   0  0  0  0  0  0  0  0  0  0  0  0
    4.4900    0.9500    0.0000 C   0  0  0  0  0  0  0  0  0  0  0  0
    3.6100    2.1700    0.0000 C   0  0  2  0  0  0  0  0  0  0  0  0
    4.0736    3.5966    0.0000 O   0  0  0  0  0  0  0  0  0  0  0  0
    2.1800    1.7000    0.0000 C   0  0  2  0  0  0  0  0  0  0  0  0
    2.3365    3.1918    0.0000 C   0  0  0  0  0  0  0  0  0  0  0  0
    0.8900    2.4500    0.0000 C   0  0  0  0  0  0  0  0  0  0  0  0
   -0.4100    1.7000    0.0000 C   0  0  0  0  0  0  0  0  0  0  0  0
   -0.4100    0.2000    0.0000 C   0  0  2  0  0  0  0  0  0  0  0  0
   -1.7089    0.9502    0.0000 H   0  0  0  0  0  0  0  0  0  0  0  0
   -1.7100   -0.5500    0.0000 C   0  0  0  0  0  0  0  0  0  0  0  0
   -3.0100    0.2000    0.0000 C   0  0  0  0  0  0  0  0  0  0  0  0
   -4.3100   -0.5500    0.0000 C   0  0  0  0  0  0  0  0  0  0  0  0
   -4.3100   -2.0500    0.0000 C   0  0  0  0  0  0  0  0  0  0  0  0
   -5.6089   -2.8002    0.0000 O   0  0  0  0  0  0  0  0  0  0  0  0
   -6.9081   -2.0504    0.0000 C   0  0  0  0  0  0  0  0  0  0  0  0
   -6.9083   -0.5504    0.0000 O   0  0  0  0  0  0  0  0  0  0  0  0
   -8.2070   -2.8006    0.0000 N   0  0  0  0  0  0  0  0  0  0  0  0
   -9.5062   -2.0508    0.0000 C   0  0  0  0  0  0  0  0  0  0  0  0
  -10.8051   -2.8010    0.0000 C   0  0  0  0  0  0  0  0  0  0  0  0
  -12.1042   -2.0512    0.0000 Cl  0  0  0  0  0  0  0  0  0  0  0  0
   -8.2068   -4.3006    0.0000 C   0  0  0  0  0  0  0  0  0  0  0  0
   -9.5057   -5.0508    0.0000 C   0  0  0  0  0  0  0  0  0  0  0  0
   -9.5054   -6.5508    0.0000 Cl  0  0  0  0  0  0  0  0  0  0  0  0
   -3.0100   -2.8000    0.0000 C   0  0  0  0  0  0  0  0  0  0  0  0
   -1.7100   -2.0500    0.0000 C   0  0  0  0  0  0  0  0  0  0  0  0
   -0.4100   -2.8000    0.0000 C   0  0  0  0  0  0  0  0  0  0  0  0
    0.8900   -2.0500    0.0000 C   0  0  0  0  0  0  0  0  0  0  0  0
    0.8900   -0.5500    0.0000 C   0  0  1  0  0  0  0  0  0  0  0  0
    2.1902   -1.2980    0.0000 H   0  0  0  0  0  0  0  0  0  0  0  0
  2  1  1  6  0  0  0 
  2  3  1  0  0  0  0 
  3  4  1  0  0  0  0 
  4  5  1  0  0  0  0 
  5  6  1  1  0  0  0 
  5  7  1  0  0  0  0 
  2  7  1  0  0  0  0 
  7  8  1  1  0  0  0 
  7  9  1  0  0  0  0 
  9 10  1  0  0  0  0 
 10 11  1  0  0  0  0 
 11 12  1  6  0  0  0 
 11 13  1  0  0  0  0 
 13 14  2  0  0  0  0 
 14 15  1  0  0  0  0 
 15 16  2  0  0  0  0 
 16 17  1  0  0  0  0 
 17 18  1  0  0  0  0 
 18 19  2  0  0  0  0 
 18 20  1  0  0  0  0 
 20 21  1  0  0  0  0 
 21 22  1  0  0  0  0 
 22 23  1  0  0  0  0 
 20 24  1  0  0  0  0 
 24 25  1  0  0  0  0 
 25 26  1  0  0  0  0 
 16 27  1  0  0  0  0 
 27 28  2  0  0  0  0 
 13 28  1  0  0  0  0 
 28 29  1  0  0  0  0 
 29 30  1  0  0  0  0 
 30 31  1  0  0  0  0 
  2 31  1  0  0  0  0 
 11 31  1  0  0  0  0 
 31 32  1  1  0  0  0 
M  END
> <SMILES>
[H][C@@]12CC[C@H](O)[C@@]1(C)CC[C@]1([H])C3=CC=C(OC(=O)N(CCCl)CCCl)C=C3CC[C@@]21[H]

$$$$

  CDK     06141809482D

 14 14  0  0  1  0  0  0  0  0999 V2000
    3.3754   -1.4500    0.0000 C   0  0  0  0  0  0  0  0  0  0  0  0
    2.0779   -0.6975    0.0000 C   0  0  2  0  0  0  0  0  0  0  0  0
    2.0808    0.8025    0.0000 C   0  0  0  0  0  0  0  0  0  0  0  0
    3.3813    1.5500    0.0000 S   0  0  0  0  0  0  0  0  0  0  0  0
    0.7774   -1.4449    0.0000 C   0  0  0  0  0  0  0  0  0  0  0  0
   -0.5202   -0.6924    0.0000 O   0  0  0  0  0  0  0  0  0  0  0  0
    0.7744   -2.9449    0.0000 N   0  0  0  0  0  0  0  0  0  0  0  0
    1.9844   -3.8249    0.0000 C   0  0  0  0  0  0  0  0  0  0  0  0
    1.5244   -5.2549    0.0000 C   0  0  0  0  0  0  0  0  0  0  0  0
    0.0244   -5.2549    0.0000 C   0  0  0  0  0  0  0  0  0  0  0  0
   -0.4456   -3.8249    0.0000 C   0  0  1  0  0  0  0  0  0  0  0  0
   -1.8721   -3.3614    0.0000 C   0  0  0  0  0  0  0  0  0  0  0  0
   -2.9869   -4.3650    0.0000 O   0  0  0  0  0  0  0  0  0  0  0  0
   -2.1840   -1.8941    0.0000 O   0  0  0  0  0  0  0  0  0  0  0  0
  2  1  1  1  0  0  0 
  2  3  1  0  0  0  0 
  3  4  1  0  0  0  0 
  2  5  1  0  0  0  0 
  5  6  2  0  0  0  0 
  5  7  1  0  0  0  0 
  7  8  1  0  0  0  0 
  8  9  1  0  0  0  0 
  9 10  1  0  0  0  0 
 10 11  1  0  0  0  0 
  7 11  1  0  0  0  0 
 11 12  1  1  0  0  0 
 12 13  1  0  0  0  0 
 12 14  2  0  0  0  0 
M  END
> <SMILES>
C[C@H](CS)C(=O)N1CCC[C@H]1C(O)=O

$$$$

  CDK     06141809482D

 12 12  0  0  1  0  0  0  0  0999 V2000
    3.8991   -1.6798    0.0000 C   0  0  0  0  0  0  0  0  0  0  0  0
    2.5986   -2.4273    0.0000 C   0  0  0  0  0  0  0  0  0  0  0  0
    1.3010   -1.6748    0.0000 C   0  0  2  0  0  0  0  0  0  0  0  0
    0.0005   -2.4222    0.0000 N   0  0  0  0  0  0  0  0  0  0  0  0
   -0.1566   -3.9101    0.0000 C   0  0  0  0  0  0  0  0  0  0  0  0
   -1.6250   -4.2267    0.0000 C   0  0  0  0  0  0  0  0  0  0  0  0
   -2.3750   -2.9277    0.0000 C   0  0  0  0  0  0  0  0  0  0  0  0
   -1.3716   -1.8057    0.0000 C   0  0  0  0  0  0  0  0  0  0  0  0
   -1.6834   -0.3384    0.0000 O   0  0  0  0  0  0  0  0  0  0  0  0
    1.3040   -0.1748    0.0000 C   0  0  0  0  0  0  0  0  0  0  0  0
    2.6045    0.5727    0.0000 N   0  0  0  0  0  0  0  0  0  0  0  0
    0.0064    0.5778    0.0000 O   0  0  0  0  0  0  0  0  0  0  0  0
  1  2  1  0  0  0  0 
  2  3  1  0  0  0  0 
  3  4  1  6  0  0  0 
  4  5  1  0  0  0  0 
  5  6  1  0  0  0  0 
  6  7  1  0  0  0  0 
  7  8  1  0  0  0  0 
  4  8  1  0  0  0  0 
  8  9  2  0  0  0  0 
  3 10  1  0  0  0  0 
 10 11  1  0  0  0  0 
 10 12  2  0  0  0  0 
M  END
> <SMILES>
CC[C@H](N1CCCC1=O)C(N)=O

$$$$

  CDK     06141809482D

 22 23  0  0  1  0  0  0  0  0999 V2000
   -5.1971    9.7500    0.0000 C   0  0  0  0  0  0  0  0  0  0  0  0
   -5.1971    8.2500    0.0000 C   0  0  0  0  0  0  0  0  0  0  0  0
   -6.6743    8.5105    0.0000 C   0  0  0  0  0  0  0  0  0  0  0  0
   -5.7101    6.8405    0.0000 C   0  0  0  0  0  0  0  0  0  0  0  0
   -3.8981    7.5000    0.0000 N   0  0  0  0  0  0  0  0  0  0  0  0
   -3.8981    6.0000    0.0000 C   0  0  0  0  0  0  0  0  0  0  0  0
   -2.5990    5.2500    0.0000 C   0  0  0  0  0  0  0  0  0  0  0  0
   -1.3000    6.0000    0.0000 O   0  0  0  0  0  0  0  0  0  0  0  0
   -2.5990    3.7500    0.0000 C   0  0  0  0  0  0  0  0  0  0  0  0
   -1.3000    3.0000    0.0000 O   0  0  0  0  0  0  0  0  0  0  0  0
   -1.3000    1.5000    0.0000 C   0  0  0  0  0  0  0  0  0  0  0  0
   -2.6000    0.7500    0.0000 C   0  0  0  0  0  0  0  0  0  0  0  0
   -2.6000   -0.7500    0.0000 C   0  0  0  0  0  0  0  0  0  0  0  0
   -1.3000   -1.5000    0.0000 C   0  0  0  0  0  0  0  0  0  0  0  0
    0.0000   -0.7500    0.0000 C   0  0  0  0  0  0  0  0  0  0  0  0
    0.0000    0.7500    0.0000 C   0  0  0  0  0  0  0  0  0  0  0  0
    1.3000    1.5000    0.0000 C   0  0  0  0  0  0  0  0  0  0  0  0
    2.6000    0.7500    0.0000 C   0  0  2  0  0  0  0  0  0  0  0  0
    3.8989    1.5002    0.0000 O   0  0  0  0  0  0  0  0  0  0  0  0
    2.6000   -0.7500    0.0000 C   0  0  2  0  0  0  0  0  0  0  0  0
    3.8989   -1.5002    0.0000 O   0  0  0  0  0  0  0  0  0  0  0  0
    1.3000   -1.5000    0.0000 C   0  0  0  0  0  0  0  0  0  0  0  0
  1  2  1  0  0  0  0 
  2  3  1  0  0  0  0 
  2  4  1  0  0  0  0 
  2  5  1  0  0  0  0 
  5  6  1  0  0  0  0 
  6  7  1  0  0  0  0 
  7  8  1  0  0  0  0 
  7  9  1  0  0  0  0 
  9 10  1  0  0  0  0 
 10 11  1  0  0  0  0 
 11 12  2  0  0  0  0 
 12 13  1  0  0  0  0 
 13 14  2  0  0  0  0 
 14 15  1  0  0  0  0 
 15 16  2  0  0  0  0 
 11 16  1  0  0  0  0 
 16 17  1  0  0  0  0 
 17 18  1  0  0  0  0 
 18 19  1  6  0  0  0 
 18 20  1  0  0  0  0 
 20 21  1  6  0  0  0 
 20 22  1  0  0  0  0 
 15 22  1  0  0  0  0 
M  END
> <SMILES>
CC(C)(C)NCC(O)COC1=CC=CC2=C1C[C@H](O)[C@H](O)C2

$$$$

  CDK     06141809482D

 28 31  0  0  1  0  0  0  0  0999 V2000
   -5.1971   -5.2512    0.0000 C   0  0  0  0  0  0  0  0  0  0  0  0
   -5.1971   -3.7512    0.0000 C   0  0  1  0  0  0  0  0  0  0  0  0
   -3.8982   -3.0010    0.0000 C   0  0  0  0  0  0  0  0  0  0  0  0
   -3.8989   -1.5002    0.0000 N   0  0  0  0  0  0  0  0  0  0  0  0
   -5.1986   -0.7496    0.0000 C   0  0  0  0  0  0  0  0  0  0  0  0
   -6.4975   -1.4998    0.0000 C   0  0  1  0  0  0  0  0  0  0  0  0
   -7.7968   -0.7502    0.0000 C   0  0  0  0  0  0  0  0  0  0  0  0
   -6.4968   -3.0006    0.0000 N   0  0  0  0  0  0  0  0  0  0  0  0
   -2.6000   -0.7500    0.0000 C   0  0  0  0  0  0  0  0  0  0  0  0
   -2.6000    0.7500    0.0000 C   0  0  0  0  0  0  0  0  0  0  0  0
   -3.8989    1.5002    0.0000 F   0  0  0  0  0  0  0  0  0  0  0  0
   -1.3000    1.5000    0.0000 C   0  0  0  0  0  0  0  0  0  0  0  0
   -1.3000    3.0000    0.0000 N   0  0  0  0  0  0  0  0  0  0  0  0
   -0.0000    0.7500    0.0000 C   0  0  0  0  0  0  0  0  0  0  0  0
    1.3000    1.5000    0.0000 C   0  0  0  0  0  0  0  0  0  0  0  0
    1.3000    3.0000    0.0000 O   0  0  0  0  0  0  0  0  0  0  0  0
    2.6000    0.7500    0.0000 C   0  0  0  0  0  0  0  0  0  0  0  0
    2.6000   -0.7500    0.0000 C   0  0  0  0  0  0  0  0  0  0  0  0
    1.3000   -1.5000    0.0000 N   0  0  0  0  0  0  0  0  0  0  0  0
    1.3000   -3.0000    0.0000 C   0  0  0  0  0  0  0  0  0  0  0  0
    2.0506   -4.2996    0.0000 C   0  0  0  0  0  0  0  0  0  0  0  0
    0.5498   -4.2989    0.0000 C   0  0  0  0  0  0  0  0  0  0  0  0
   -0.0000   -0.7500    0.0000 C   0  0  0  0  0  0  0  0  0  0  0  0
   -1.3000   -1.5000    0.0000 C   0  0  0  0  0  0  0  0  0  0  0  0
   -1.3000   -3.0000    0.0000 F   0  0  0  0  0  0  0  0  0  0  0  0
    3.8989    1.5002    0.0000 C   0  0  0  0  0  0  0  0  0  0  0  0
    5.1981    0.7504    0.0000 O   0  0  0  0  0  0  0  0  0  0  0  0
    3.8987    3.0002    0.0000 O   0  0  0  0  0  0  0  0  0  0  0  0
  2  1  1  6  0  0  0 
  2  3  1  0  0  0  0 
  3  4  1  0  0  0  0 
  4  5  1  0  0  0  0 
  5  6  1  0  0  0  0 
  6  7  1  6  0  0  0 
  6  8  1  0  0  0  0 
  2  8  1  0  0  0  0 
  4  9  1  0  0  0  0 
  9 10  2  0  0  0  0 
 10 11  1  0  0  0  0 
 10 12  1  0  0  0  0 
 12 13  1  0  0  0  0 
 12 14  2  0  0  0  0 
 14 15  1  0  0  0  0 
 15 16  2  0  0  0  0 
 15 17  1  0  0  0  0 
 17 18  2  0  0  0  0 
 18 19  1  0  0  0  0 
 19 20  1  0  0  0  0 
 20 21  1  0  0  0  0 
 21 22  1  0  0  0  0 
 20 22  1  0  0  0  0 
 19 23  1  0  0  0  0 
 14 23  1  0  0  0  0 
 23 24  2  0  0  0  0 
  9 24  1  0  0  0  0 
 24 25  1  0  0  0  0 
 17 26  1  0  0  0  0 
 26 27  1  0  0  0  0 
 26 28  2  0  0  0  0 
M  END
> <SMILES>
C[C@H]1CN(C[C@@H](C)N1)C1=C(F)C(N)=C2C(=O)C(=CN(C3CC3)C2=C1F)C(O)=O

$$$$

  CDK     06141809482D

 16 17  0  0  0  0  0  0  0  0999 V2000
   -1.1505   -2.0620    0.0000 C   0  0  0  0  0  0  0  0  0  0  0  0
   -2.6276   -1.8012    0.0000 N   0  0  0  0  0  0  0  0  0  0  0  0
   -3.1403   -0.3915    0.0000 C   0  0  0  0  0  0  0  0  0  0  0  0
   -4.4403   -1.1415    0.0000 C   0  0  0  0  0  0  0  0  0  0  0  0
   -5.7403   -0.3915    0.0000 C   0  0  0  0  0  0  0  0  0  0  0  0
   -5.7403    1.1085    0.0000 C   0  0  0  0  0  0  0  0  0  0  0  0
   -4.4403    1.8585    0.0000 C   0  0  0  0  0  0  0  0  0  0  0  0
   -3.1403    1.1085    0.0000 C   0  0  0  0  0  0  0  0  0  0  0  0
   -1.8414    1.8587    0.0000 O   0  0  0  0  0  0  0  0  0  0  0  0
   -0.7177    0.0354    0.0000 C   0  0  0  0  0  0  0  0  0  0  0  0
    0.2490   -1.1176    0.0000 C   0  0  0  0  0  0  0  0  0  0  0  0
    1.7238   -0.8438    0.0000 C   0  0  0  0  0  0  0  0  0  0  0  0
    2.2454    0.5650    0.0000 C   0  0  0  0  0  0  0  0  0  0  0  0
    1.2690    1.7162    0.0000 C   0  0  0  0  0  0  0  0  0  0  0  0
   -0.2059    1.4424    0.0000 C   0  0  0  0  0  0  0  0  0  0  0  0
   -1.1753    2.5870    0.0000 Cl  0  0  0  0  0  0  0  0  0  0  0  0
  1  2  1  0  0  0  0 
  2  3  1  0  0  0  0 
  3  4  1  0  0  0  0 
  4  5  1  0  0  0  0 
  5  6  1  0  0  0  0 
  6  7  1  0  0  0  0 
  7  8  1  0  0  0  0 
  3  8  1  0  0  0  0 
  8  9  2  0  0  0  0 
  3 10  1  0  0  0  0 
 10 11  2  0  0  0  0 
 11 12  1  0  0  0  0 
 12 13  2  0  0  0  0 
 13 14  1  0  0  0  0 
 14 15  2  0  0  0  0 
 10 15  1  0  0  0  0 
 15 16  1  0  0  0  0 
M  END
> <SMILES>
CNC1(CCCCC1=O)C1=CC=CC=C1Cl

$$$$

  CDK     06141809482D

 27 30  0  0  0  0  0  0  0  0999 V2000
   -2.1006  -13.8001    0.0000 O   0  0  0  0  0  0  0  0  0  0  0  0
   -2.9478  -12.5623    0.0000 C   0  0  0  0  0  0  0  0  0  0  0  0
   -2.2995  -11.2097    0.0000 C   0  0  0  0  0  0  0  0  0  0  0  0
   -3.1467   -9.9719    0.0000 O   0  0  0  0  0  0  0  0  0  0  0  0
   -2.4983   -8.6192    0.0000 C   0  0  0  0  0  0  0  0  0  0  0  0
   -3.3455   -7.3814    0.0000 C   0  0  0  0  0  0  0  0  0  0  0  0
   -2.6971   -6.0288    0.0000 N   0  0  0  0  0  0  0  0  0  0  0  0
   -1.2007   -5.9137    0.0000 C   0  0  0  0  0  0  0  0  0  0  0  0
   -0.5514   -4.5606    0.0000 C   0  0  0  0  0  0  0  0  0  0  0  0
   -1.3984   -3.3226    0.0000 N   0  0  0  0  0  0  0  0  0  0  0  0
   -2.8948   -3.4377    0.0000 C   0  0  0  0  0  0  0  0  0  0  0  0
   -3.5442   -4.7908    0.0000 C   0  0  0  0  0  0  0  0  0  0  0  0
   -0.7500   -1.9700    0.0000 C   0  0  0  0  0  0  0  0  0  0  0  0
    0.7500   -1.9700    0.0000 N   0  0  0  0  0  0  0  0  0  0  0  0
    1.6900   -0.8000    0.0000 C   0  0  0  0  0  0  0  0  0  0  0  0
    3.1200   -1.2400    0.0000 C   0  0  0  0  0  0  0  0  0  0  0  0
    4.2200   -0.2200    0.0000 C   0  0  0  0  0  0  0  0  0  0  0  0
    3.8800    1.2400    0.0000 C   0  0  0  0  0  0  0  0  0  0  0  0
    2.4500    1.6800    0.0000 C   0  0  0  0  0  0  0  0  0  0  0  0
    1.3500    0.6600    0.0000 C   0  0  0  0  0  0  0  0  0  0  0  0
    0.0000    1.3100    0.0000 S   0  0  0  0  0  0  0  0  0  0  0  0
   -1.3500    0.6600    0.0000 C   0  0  0  0  0  0  0  0  0  0  0  0
   -2.4500    1.6800    0.0000 C   0  0  0  0  0  0  0  0  0  0  0  0
   -3.8800    1.2400    0.0000 C   0  0  0  0  0  0  0  0  0  0  0  0
   -4.2200   -0.2200    0.0000 C   0  0  0  0  0  0  0  0  0  0  0  0
   -3.1200   -1.2400    0.0000 C   0  0  0  0  0  0  0  0  0  0  0  0
   -1.6900   -0.8000    0.0000 C   0  0  0  0  0  0  0  0  0  0  0  0
  1  2  1  0  0  0  0 
  2  3  1  0  0  0  0 
  3  4  1  0  0  0  0 
  4  5  1  0  0  0  0 
  5  6  1  0  0  0  0 
  6  7  1  0  0  0  0 
  7  8  1  0  0  0  0 
  8  9  1  0  0  0  0 
  9 10  1  0  0  0  0 
 10 11  1  0  0  0  0 
 11 12  1  0  0  0  0 
  7 12  1  0  0  0  0 
 10 13  1  0  0  0  0 
 13 14  2  0  0  0  0 
 14 15  1  0  0  0  0 
 15 16  2  0  0  0  0 
 16 17  1  0  0  0  0 
 17 18  2  0  0  0  0 
 18 19  1  0  0  0  0 
 19 20  2  0  0  0  0 
 15 20  1  0  0  0  0 
 20 21  1  0  0  0  0 
 21 22  1  0  0  0  0 
 22 23  2  0  0  0  0 
 23 24  1  0  0  0  0 
 24 25  2  0  0  0  0 
 25 26  1  0  0  0  0 
 26 27  2  0  0  0  0 
 13 27  1  0  0  0  0 
 22 27  1  0  0  0  0 
M  END
> <SMILES>
OCCOCCN1CCN(CC1)C1=NC2=CC=CC=C2SC2=CC=CC=C12

$$$$

  CDK     06141809482D

 22 24  0  0  0  0  0  0  0  0999 V2000
   -1.2990    3.6900    0.0000 H   0  0  0  0  0  0  0  0  0  0  0  0
    0.0000    2.9400    0.0000 C   0  0  0  0  0  0  0  0  0  0  0  0
    1.2990    3.6900    0.0000 C   0  0  0  0  0  0  0  0  0  0  0  0
    1.2990    5.1900    0.0000 C   0  0  0  0  0  0  0  0  0  0  0  0
    2.5981    5.9400    0.0000 N   0  0  0  0  0  0  0  0  0  0  0  0
    2.5981    7.4400    0.0000 C   0  0  0  0  0  0  0  0  0  0  0  0
    3.8971    5.1900    0.0000 C   0  0  0  0  0  0  0  0  0  0  0  0
    0.0000    1.4400    0.0000 C   0  0  0  0  0  0  0  0  0  0  0  0
   -1.2500    0.7200    0.0000 C   0  0  0  0  0  0  0  0  0  0  0  0
   -2.5400    1.4900    0.0000 C   0  0  0  0  0  0  0  0  0  0  0  0
   -3.8400    0.7500    0.0000 C   0  0  0  0  0  0  0  0  0  0  0  0
   -5.1367    1.5040    0.0000 Cl  0  0  0  0  0  0  0  0  0  0  0  0
   -3.8400   -0.7500    0.0000 C   0  0  0  0  0  0  0  0  0  0  0  0
   -2.5400   -1.4900    0.0000 C   0  0  0  0  0  0  0  0  0  0  0  0
   -1.2500   -0.7200    0.0000 C   0  0  0  0  0  0  0  0  0  0  0  0
    0.0000   -1.4400    0.0000 S   0  0  0  0  0  0  0  0  0  0  0  0
    1.2500   -0.7200    0.0000 C   0  0  0  0  0  0  0  0  0  0  0  0
    1.2500    0.7200    0.0000 C   0  0  0  0  0  0  0  0  0  0  0  0
    2.5400    1.4900    0.0000 C   0  0  0  0  0  0  0  0  0  0  0  0
    3.8400    0.7500    0.0000 C   0  0  0  0  0  0  0  0  0  0  0  0
    3.8400   -0.7500    0.0000 C   0  0  0  0  0  0  0  0  0  0  0  0
    2.5400   -1.4900    0.0000 C   0  0  0  0  0  0  0  0  0  0  0  0
  1  2  1  4  0  0  0 
  2  3  1  0  0  0  0 
  3  4  1  0  0  0  0 
  4  5  1  0  0  0  0 
  5  6  1  0  0  0  0 
  5  7  1  0  0  0  0 
  2  8  2  0  0  0  0 
  8  9  1  0  0  0  0 
  9 10  2  0  0  0  0 
 10 11  1  0  0  0  0 
 11 12  1  0  0  0  0 
 11 13  2  0  0  0  0 
 13 14  1  0  0  0  0 
 14 15  2  0  0  0  0 
  9 15  1  0  0  0  0 
 15 16  1  0  0  0  0 
 16 17  1  0  0  0  0 
 17 18  2  0  0  0  0 
  8 18  1  0  0  0  0 
 18 19  1  0  0  0  0 
 19 20  2  0  0  0  0 
 20 21  1  0  0  0  0 
 21 22  2  0  0  0  0 
 17 22  1  0  0  0  0 
M  END
> <SMILES>
[H]C(CCN(C)C)=C1C2=CC(Cl)=CC=C2SC2=C1C=CC=C2

$$$$

  CDK     06141809482D

 22 24  0  0  0  0  0  0  0  0999 V2000
   -2.8881   -7.0100    0.0000 C   0  0  0  0  0  0  0  0  0  0  0  0
   -2.8881   -5.5100    0.0000 N   0  0  0  0  0  0  0  0  0  0  0  0
   -4.1871   -4.7600    0.0000 C   0  0  0  0  0  0  0  0  0  0  0  0
   -1.5890   -4.7600    0.0000 C   0  0  0  0  0  0  0  0  0  0  0  0
   -1.5890   -3.2600    0.0000 C   0  0  0  0  0  0  0  0  0  0  0  0
   -0.2900   -2.5100    0.0000 C   0  0  0  0  0  0  0  0  0  0  0  0
   -0.2900   -1.0100    0.0000 N   0  0  0  0  0  0  0  0  0  0  0  0
   -1.6400   -0.3600    0.0000 C   0  0  0  0  0  0  0  0  0  0  0  0
   -2.7400   -1.3800    0.0000 C   0  0  0  0  0  0  0  0  0  0  0  0
   -4.1800   -0.9400    0.0000 C   0  0  0  0  0  0  0  0  0  0  0  0
   -4.5100    0.5200    0.0000 C   0  0  0  0  0  0  0  0  0  0  0  0
   -3.4100    1.5400    0.0000 C   0  0  0  0  0  0  0  0  0  0  0  0
   -1.9800    1.1000    0.0000 C   0  0  0  0  0  0  0  0  0  0  0  0
   -1.0400    2.2700    0.0000 C   0  0  0  0  0  0  0  0  0  0  0  0
    0.4600    2.2700    0.0000 C   0  0  0  0  0  0  0  0  0  0  0  0
    1.3900    1.1000    0.0000 C   0  0  0  0  0  0  0  0  0  0  0  0
    1.0600   -0.3600    0.0000 C   0  0  0  0  0  0  0  0  0  0  0  0
    2.1600   -1.3800    0.0000 C   0  0  0  0  0  0  0  0  0  0  0  0
    3.5900   -0.9400    0.0000 C   0  0  0  0  0  0  0  0  0  0  0  0
    4.6903   -1.9595    0.0000 Cl  0  0  0  0  0  0  0  0  0  0  0  0
    3.9200    0.5200    0.0000 C   0  0  0  0  0  0  0  0  0  0  0  0
    2.8300    1.5400    0.0000 C   0  0  0  0  0  0  0  0  0  0  0  0
  1  2  1  0  0  0  0 
  2  3  1  0  0  0  0 
  2  4  1  0  0  0  0 
  4  5  1  0  0  0  0 
  5  6  1  0  0  0  0 
  6  7  1  0  0  0  0 
  7  8  1  0  0  0  0 
  8  9  2  0  0  0  0 
  9 10  1  0  0  0  0 
 10 11  2  0  0  0  0 
 11 12  1  0  0  0  0 
 12 13  2  0  0  0  0 
  8 13  1  0  0  0  0 
 13 14  1  0  0  0  0 
 14 15  1  0  0  0  0 
 15 16  1  0  0  0  0 
 16 17  2  0  0  0  0 
  7 17  1  0  0  0  0 
 17 18  1  0  0  0  0 
 18 19  2  0  0  0  0 
 19 20  1  0  0  0  0 
 19 21  1  0  0  0  0 
 21 22  2  0  0  0  0 
 16 22  1  0  0  0  0 
M  END
> <SMILES>
CN(C)CCCN1C2=CC=CC=C2CCC2=C1C=C(Cl)C=C2

$$$$

  CDK     06141809482D

 27 29  0  0  0  0  0  0  0  0999 V2000
   -5.1962    5.3100    0.0000 C   0  0  0  0  0  0  0  0  0  0  0  0
   -3.8971    4.5600    0.0000 C   0  0  0  0  0  0  0  0  0  0  0  0
   -3.8971    3.0600    0.0000 C   0  0  0  0  0  0  0  0  0  0  0  0
   -2.5981    5.3100    0.0000 C   0  0  0  0  0  0  0  0  0  0  0  0
   -1.2990    4.5600    0.0000 O   0  0  0  0  0  0  0  0  0  0  0  0
    0.0000    5.3100    0.0000 C   0  0  0  0  0  0  0  0  0  0  0  0
    1.2990    4.5600    0.0000 C   0  0  0  0  0  0  0  0  0  0  0  0
    1.2990    3.0600    0.0000 C   0  0  0  0  0  0  0  0  0  0  0  0
    2.5981    2.3100    0.0000 N   0  0  0  0  0  0  0  0  0  0  0  0
    3.8971    3.0600    0.0000 C   0  0  0  0  0  0  0  0  0  0  0  0
    5.1962    2.3100    0.0000 C   0  0  0  0  0  0  0  0  0  0  0  0
    6.4957    3.0608    0.0000 C   0  0  0  0  0  0  0  0  0  0  0  0
    7.7947    2.3108    0.0000 C   0  0  0  0  0  0  0  0  0  0  0  0
    7.7942    0.8100    0.0000 C   0  0  0  0  0  0  0  0  0  0  0  0
    6.4947    0.0592    0.0000 C   0  0  0  0  0  0  0  0  0  0  0  0
    5.1957    0.8092    0.0000 C   0  0  0  0  0  0  0  0  0  0  0  0
    2.5981    0.8100    0.0000 C   0  0  0  0  0  0  0  0  0  0  0  0
    1.2981    0.0600    0.0000 C   0  0  0  0  0  0  0  0  0  0  0  0
    1.2981   -1.4400    0.0000 C   0  0  0  0  0  0  0  0  0  0  0  0
    2.5981   -2.1900    0.0000 C   0  0  0  0  0  0  0  0  0  0  0  0
    3.8981   -1.4400    0.0000 C   0  0  0  0  0  0  0  0  0  0  0  0
    3.8981    0.0600    0.0000 C   0  0  0  0  0  0  0  0  0  0  0  0
    2.5981    5.3100    0.0000 N   0  0  0  0  0  0  0  0  0  0  0  0
    3.9652    4.7021    0.0000 C   0  0  0  0  0  0  0  0  0  0  0  0
    4.9736    5.8155    0.0000 C   0  0  0  0  0  0  0  0  0  0  0  0
    4.2236    7.1145    0.0000 C   0  0  0  0  0  0  0  0  0  0  0  0
    2.7552    6.7979    0.0000 C   0  0  0  0  0  0  0  0  0  0  0  0
  1  2  1  0  0  0  0 
  2  3  1  0  0  0  0 
  2  4  1  0  0  0  0 
  4  5  1  0  0  0  0 
  5  6  1  0  0  0  0 
  6  7  1  0  0  0  0 
  7  8  1  0  0  0  0 
  8  9  1  0  0  0  0 
  9 10  1  0  0  0  0 
 10 11  1  0  0  0  0 
 11 12  2  0  0  0  0 
 12 13  1  0  0  0  0 
 13 14  2  0  0  0  0 
 14 15  1  0  0  0  0 
 15 16  2  0  0  0  0 
 11 16  1  0  0  0  0 
  9 17  1  0  0  0  0 
 17 18  2  0  0  0  0 
 18 19  1  0  0  0  0 
 19 20  2  0  0  0  0 
 20 21  1  0  0  0  0 
 21 22  2  0  0  0  0 
 17 22  1  0  0  0  0 
  7 23  1  0  0  0  0 
 23 24  1  0  0  0  0 
 24 25  1  0  0  0  0 
 25 26  1  0  0  0  0 
 26 27  1  0  0  0  0 
 23 27  1  0  0  0  0 
M  END
> <SMILES>
CC(C)COCC(CN(CC1=CC=CC=C1)C1=CC=CC=C1)N1CCCC1

$$$$

  CDK     06141809482D

 60 65  0  0  1  0  0  0  0  0999 V2000
    5.1488    0.5860    0.0000 H   0  0  0  0  0  0  0  0  0  0  0  0
    3.8499   -0.1642    0.0000 C   0  0  2  0  0  0  0  0  0  0  0  0
    3.8499    1.3358    0.0000 C   0  0  0  0  0  0  0  0  0  0  0  0
    2.5499    2.0858    0.0000 C   0  0  2  0  0  0  0  0  0  0  0  0
    2.5499    3.5858    0.0000 O   0  0  0  0  0  0  0  0  0  0  0  0
    1.2499    1.3358    0.0000 C   0  0  1  0  0  0  0  0  0  0  0  0
    1.5533    2.8048    0.0000 C   0  0  0  0  0  0  0  0  0  0  0  0
    0.1699    2.7858    0.0000 C   0  0  0  0  0  0  0  0  0  0  0  0
    0.8429    4.1263    0.0000 O   0  0  0  0  0  0  0  0  0  0  0  0
   -1.3301    2.7858    0.0000 C   0  0  2  0  0  0  0  0  0  0  0  0
   -1.9042    4.1716    0.0000 O   0  0  0  0  0  0  0  0  0  0  0  0
   -2.3901    1.7258    0.0000 C   0  0  0  0  0  0  0  0  0  0  0  0
   -3.8901    1.7258    0.0000 C   0  0  0  0  0  0  0  0  0  0  0  0
   -4.6403    3.0247    0.0000 C   0  0  0  0  0  0  0  0  0  0  0  0
   -4.6401    0.4258    0.0000 C   0  0  2  0  0  0  0  0  0  0  0  0
   -3.8901   -0.8742    0.0000 C   0  0  0  0  0  0  0  0  0  0  0  0
   -2.3901   -0.8742    0.0000 C   0  0  1  0  0  0  0  0  0  0  0  0
   -2.7267   -2.3360    0.0000 O   0  0  0  0  0  0  0  0  0  0  0  0
   -0.2101   -1.9342    0.0000 C   0  0  1  0  0  0  0  0  0  0  0  0
    0.1088   -3.3999    0.0000 O   0  0  0  0  0  0  0  0  0  0  0  0
   -1.0011   -4.4090    0.0000 C   0  0  0  0  0  0  0  0  0  0  0  0
   -2.4299   -3.9523    0.0000 O   0  0  0  0  0  0  0  0  0  0  0  0
   -0.6822   -5.8747    0.0000 C   0  0  0  0  0  0  0  0  0  0  0  0
    0.7476   -6.3311    0.0000 C   0  0  0  0  0  0  0  0  0  0  0  0
    1.0665   -7.7968    0.0000 C   0  0  0  0  0  0  0  0  0  0  0  0
   -0.0443   -8.8061    0.0000 C   0  0  0  0  0  0  0  0  0  0  0  0
   -1.4741   -8.3496    0.0000 C   0  0  0  0  0  0  0  0  0  0  0  0
   -1.7930   -6.8839    0.0000 C   0  0  0  0  0  0  0  0  0  0  0  0
    1.2499   -0.1642    0.0000 C   0  0  2  0  0  0  0  0  0  0  0  0
    1.5168   -1.6403    0.0000 H   0  0  0  0  0  0  0  0  0  0  0  0
    2.5499   -0.9142    0.0000 C   0  0  2  0  0  0  0  0  0  0  0  0
    3.8499   -1.6642    0.0000 C   0  0  0  0  0  0  0  0  0  0  0  0
    5.1499   -0.9142    0.0000 O   0  0  0  0  0  0  0  0  0  0  0  0
    1.5604   -2.6293    0.0000 O   0  0  0  0  0  0  0  0  0  0  0  0
    2.3108   -3.9281    0.0000 C   0  0  0  0  0  0  0  0  0  0  0  0
    3.8108   -3.9276    0.0000 C   0  0  0  0  0  0  0  0  0  0  0  0
    1.5612   -5.2274    0.0000 O   0  0  0  0  0  0  0  0  0  0  0  0
   -1.6401    0.4258    0.0000 C   0  0  0  0  0  0  0  0  0  0  0  0
   -0.4910   -0.5383    0.0000 C   0  0  0  0  0  0  0  0  0  0  0  0
   -0.4910    1.3898    0.0000 C   0  0  0  0  0  0  0  0  0  0  0  0
   -6.1401    0.4258    0.0000 O   0  0  0  0  0  0  0  0  0  0  0  0
   -6.8901    1.7248    0.0000 C   0  0  0  0  0  0  0  0  0  0  0  0
   -6.1401    3.0238    0.0000 O   0  0  0  0  0  0  0  0  0  0  0  0
   -8.3901    1.7248    0.0000 C   0  0  2  0  0  0  0  0  0  0  0  0
   -9.1401    0.4258    0.0000 O   0  0  0  0  0  0  0  0  0  0  0  0
   -9.1401    3.0238    0.0000 C   0  0  1  0  0  0  0  0  0  0  0  0
  -10.6401    3.0238    0.0000 N   0  0  0  0  0  0  0  0  0  0  0  0
  -11.3901    4.3229    0.0000 C   0  0  0  0  0  0  0  0  0  0  0  0
  -10.6401    5.6219    0.0000 O   0  0  0  0  0  0  0  0  0  0  0  0
  -12.8901    4.3229    0.0000 O   0  0  0  0  0  0  0  0  0  0  0  0
  -13.6401    5.6219    0.0000 C   0  0  0  0  0  0  0  0  0  0  0  0
  -15.1401    5.6219    0.0000 C   0  0  0  0  0  0  0  0  0  0  0  0
  -12.2306    6.1350    0.0000 C   0  0  0  0  0  0  0  0  0  0  0  0
  -13.9006    7.0991    0.0000 C   0  0  0  0  0  0  0  0  0  0  0  0
   -8.3901    4.3229    0.0000 C   0  0  0  0  0  0  0  0  0  0  0  0
   -9.1410    5.6224    0.0000 C   0  0  0  0  0  0  0  0  0  0  0  0
   -8.3910    6.9214    0.0000 C   0  0  0  0  0  0  0  0  0  0  0  0
   -6.8901    6.9210    0.0000 C   0  0  0  0  0  0  0  0  0  0  0  0
   -6.1393    5.6214    0.0000 C   0  0  0  0  0  0  0  0  0  0  0  0
   -6.8893    4.3224    0.0000 C   0  0  0  0  0  0  0  0  0  0  0  0
  2  1  1  6  0  0  0 
  2  3  1  0  0  0  0 
  3  4  1  0  0  0  0 
  4  5  1  1  0  0  0 
  4  6  1  0  0  0  0 
  6  7  1  1  0  0  0 
  6  8  1  0  0  0  0 
  8  9  2  0  0  0  0 
  8 10  1  0  0  0  0 
 10 11  1  1  0  0  0 
 10 12  1  0  0  0  0 
 12 13  2  0  0  0  0 
 13 14  1  0  0  0  0 
 13 15  1  0  0  0  0 
 15 16  1  0  0  0  0 
 16 17  1  0  0  0  0 
 17 18  1  1  0  0  0 
 17 19  1  0  0  0  0 
 19 20  1  6  0  0  0 
 20 21  1  0  0  0  0 
 21 22  2  0  0  0  0 
 21 23  1  0  0  0  0 
 23 24  2  0  0  0  0 
 24 25  1  0  0  0  0 
 25 26  2  0  0  0  0 
 26 27  1  0  0  0  0 
 27 28  2  0  0  0  0 
 23 28  1  0  0  0  0 
 19 29  1  0  0  0  0 
  6 29  1  0  0  0  0 
 29 30  1  6  0  0  0 
 29 31  1  0  0  0  0 
  2 31  1  0  0  0  0 
 31 32  1  0  0  0  0 
 32 33  1  0  0  0  0 
  2 33  1  0  0  0  0 
 31 34  1  6  0  0  0 
 34 35  1  0  0  0  0 
 35 36  1  0  0  0  0 
 35 37  2  0  0  0  0 
 17 38  1  0  0  0  0 
 12 38  1  0  0  0  0 
 38 39  1  0  0  0  0 
 38 40  1  0  0  0  0 
 15 41  1  6  0  0  0 
 41 42  1  0  0  0  0 
 42 43  2  0  0  0  0 
 42 44  1  0  0  0  0 
 44 45  1  6  0  0  0 
 44 46  1  0  0  0  0 
 46 47  1  1  0  0  0 
 47 48  1  0  0  0  0 
 48 49  2  0  0  0  0 
 48 50  1  0  0  0  0 
 50 51  1  0  0  0  0 
 51 52  1  0  0  0  0 
 51 53  1  0  0  0  0 
 51 54  1  0  0  0  0 
 46 55  1  0  0  0  0 
 55 56  2  0  0  0  0 
 56 57  1  0  0  0  0 
 57 58  2  0  0  0  0 
 58 59  1  0  0  0  0 
 59 60  2  0  0  0  0 
 55 60  1  0  0  0  0 
M  END
> <SMILES>
[H][C@@]12C[C@H](O)[C@@]3(C)C(=O)[C@H](O)C4=C(C)[C@H](C[C@@](O)([C@@H](OC(=O)C5=CC=CC=C5)[C@]3([H])[C@@]1(CO2)OC(C)=O)C4(C)C)OC(=O)[C@H](O)[C@@H](NC(=O)OC(C)(C)C)C1=CC=CC=C1

$$$$

  CDK     06141809482D

 25 28  0  0  1  0  0  0  0  0999 V2000
    2.8111   -0.6265    0.0000 H   0  0  0  0  0  0  0  0  0  0  0  0
    1.5100    0.1200    0.0000 C   0  0  2  0  0  0  0  0  0  0  0  0
    1.5100   -1.3800    0.0000 C   0  0  0  0  0  0  0  0  0  0  0  0
    0.2200   -2.1200    0.0000 C   0  0  0  0  0  0  0  0  0  0  0  0
    0.2200   -3.6200    0.0000 C   0  0  0  0  0  0  0  0  0  0  0  0
   -2.3800   -3.6200    0.0000 N   0  0  0  0  0  0  0  0  0  0  0  0
   -2.3800   -2.1200    0.0000 C   0  0  0  0  0  0  0  0  0  0  0  0
   -3.6800   -1.3800    0.0000 C   0  0  0  0  0  0  0  0  0  0  0  0
   -3.6800    0.1200    0.0000 C   0  0  0  0  0  0  0  0  0  0  0  0
   -2.3800    0.8800    0.0000 C   0  0  0  0  0  0  0  0  0  0  0  0
   -1.0800    0.1200    0.0000 C   0  0  0  0  0  0  0  0  0  0  0  0
   -1.0800   -1.3800    0.0000 C   0  0  0  0  0  0  0  0  0  0  0  0
    0.2200    0.8800    0.0000 C   0  0  0  0  0  0  0  0  0  0  0  0
    0.2200    2.3800    0.0000 C   0  0  0  0  0  0  0  0  0  0  0  0
    1.5100    3.1200    0.0000 C   0  0  2  0  0  0  0  0  0  0  0  0
    2.8100    2.3800    0.0000 C   0  0  0  0  0  0  0  0  0  0  0  0
    2.8100    0.8800    0.0000 N   0  0  0  0  0  0  0  0  0  0  0  0
    4.1111    0.1335    0.0000 C   0  0  0  0  0  0  0  0  0  0  0  0
    1.5075    4.6200    0.0000 C   0  0  0  0  0  0  0  0  0  0  0  0
    0.2072    5.3678    0.0000 O   0  0  0  0  0  0  0  0  0  0  0  0
    2.8053    5.3722    0.0000 N   0  0  0  0  0  0  0  0  0  0  0  0
    2.8028    6.8722    0.0000 C   0  0  1  0  0  0  0  0  0  0  0  0
    1.5025    7.6200    0.0000 C   0  0  0  0  0  0  0  0  0  0  0  0
    4.1006    7.6243    0.0000 C   0  0  0  0  0  0  0  0  0  0  0  0
    4.0981    9.1243    0.0000 O   0  0  0  0  0  0  0  0  0  0  0  0
  2  1  1  1  0  0  0 
  2  3  1  0  0  0  0 
  3  4  1  0  0  0  0 
  4  5  2  0  0  0  0 
  5  6  1  0  0  0  0 
  6  7  1  0  0  0  0 
  7  8  2  0  0  0  0 
  8  9  1  0  0  0  0 
  9 10  2  0  0  0  0 
 10 11  1  0  0  0  0 
 11 12  2  0  0  0  0 
  4 12  1  0  0  0  0 
  7 12  1  0  0  0  0 
 11 13  1  0  0  0  0 
  2 13  1  0  0  0  0 
 13 14  2  0  0  0  0 
 14 15  1  0  0  0  0 
 15 16  1  0  0  0  0 
 16 17  1  0  0  0  0 
  2 17  1  0  0  0  0 
 17 18  1  0  0  0  0 
 15 19  1  1  0  0  0 
 19 20  2  0  0  0  0 
 19 21  1  0  0  0  0 
 21 22  1  0  0  0  0 
 22 23  1  1  0  0  0 
 22 24  1  0  0  0  0 
 24 25  1  0  0  0  0 
M  END
> <SMILES>
[H][C@@]12CC3=CNC4=CC=CC(=C34)C1=C[C@H](CN2C)C(=O)N[C@@H](C)CO

$$$$

  CDK     06141809482D

 40 44  0  0  0  0  0  0  0  0999 V2000
  -11.8094   -7.8987    0.0000 C   0  0  0  0  0  0  0  0  0  0  0  0
  -10.3180   -7.7380    0.0000 S   0  0  0  0  0  0  0  0  0  0  0  0
  -10.4187   -9.2346    0.0000 O   0  0  0  0  0  0  0  0  0  0  0  0
   -8.8616   -8.0971    0.0000 O   0  0  0  0  0  0  0  0  0  0  0  0
   -9.7115   -6.3661    0.0000 C   0  0  0  0  0  0  0  0  0  0  0  0
   -8.2201   -6.2054    0.0000 C   0  0  0  0  0  0  0  0  0  0  0  0
   -7.6136   -4.8335    0.0000 N   0  0  0  0  0  0  0  0  0  0  0  0
   -6.1222   -4.6728    0.0000 C   0  0  0  0  0  0  0  0  0  0  0  0
   -5.5157   -3.3009    0.0000 C   0  0  0  0  0  0  0  0  0  0  0  0
   -6.2724   -2.0032    0.0000 C   0  0  0  0  0  0  0  0  0  0  0  0
   -5.2703   -0.8871    0.0000 C   0  0  0  0  0  0  0  0  0  0  0  0
   -3.8989   -1.5002    0.0000 C   0  0  0  0  0  0  0  0  0  0  0  0
   -4.0525   -2.9885    0.0000 O   0  0  0  0  0  0  0  0  0  0  0  0
   -2.6000   -0.7500    0.0000 C   0  0  0  0  0  0  0  0  0  0  0  0
   -1.3000   -1.5000    0.0000 C   0  0  0  0  0  0  0  0  0  0  0  0
    0.0000   -0.7500    0.0000 C   0  0  0  0  0  0  0  0  0  0  0  0
    0.0000    0.7500    0.0000 C   0  0  0  0  0  0  0  0  0  0  0  0
   -1.3000    1.5000    0.0000 C   0  0  0  0  0  0  0  0  0  0  0  0
   -2.6000    0.7500    0.0000 C   0  0  0  0  0  0  0  0  0  0  0  0
    1.3000    1.5000    0.0000 N   0  0  0  0  0  0  0  0  0  0  0  0
    2.6000    0.7500    0.0000 C   0  0  0  0  0  0  0  0  0  0  0  0
    2.6000   -0.7500    0.0000 N   0  0  0  0  0  0  0  0  0  0  0  0
    1.3000   -1.5000    0.0000 C   0  0  0  0  0  0  0  0  0  0  0  0
    1.3000   -3.0000    0.0000 N   0  0  0  0  0  0  0  0  0  0  0  0
    2.5990   -3.7500    0.0000 C   0  0  0  0  0  0  0  0  0  0  0  0
    3.8989   -2.9998    0.0000 C   0  0  0  0  0  0  0  0  0  0  0  0
    5.1990   -3.7496    0.0000 C   0  0  0  0  0  0  0  0  0  0  0  0
    6.4978   -2.9992    0.0000 Cl  0  0  0  0  0  0  0  0  0  0  0  0
    5.1993   -5.2496    0.0000 C   0  0  0  0  0  0  0  0  0  0  0  0
    6.4983   -5.9996    0.0000 O   0  0  0  0  0  0  0  0  0  0  0  0
    7.7974   -5.2496    0.0000 C   0  0  0  0  0  0  0  0  0  0  0  0
    9.0964   -5.9996    0.0000 C   0  0  0  0  0  0  0  0  0  0  0  0
   10.3972   -5.2509    0.0000 C   0  0  0  0  0  0  0  0  0  0  0  0
   11.6949   -6.0031    0.0000 C   0  0  0  0  0  0  0  0  0  0  0  0
   12.9954   -5.2555    0.0000 F   0  0  0  0  0  0  0  0  0  0  0  0
   11.6920   -7.5039    0.0000 C   0  0  0  0  0  0  0  0  0  0  0  0
   10.3962   -8.2439    0.0000 C   0  0  0  0  0  0  0  0  0  0  0  0
    9.0984   -7.4918    0.0000 C   0  0  0  0  0  0  0  0  0  0  0  0
    3.8994   -5.9998    0.0000 C   0  0  0  0  0  0  0  0  0  0  0  0
    2.5993   -5.2500    0.0000 C   0  0  0  0  0  0  0  0  0  0  0  0
  1  2  1  0  0  0  0 
  2  3  2  0  0  0  0 
  2  4  2  0  0  0  0 
  2  5  1  0  0  0  0 
  5  6  1  0  0  0  0 
  6  7  1  0  0  0  0 
  7  8  1  0  0  0  0 
  8  9  1  0  0  0  0 
  9 10  2  0  0  0  0 
 10 11  1  0  0  0  0 
 11 12  2  0  0  0  0 
 12 13  1  0  0  0  0 
  9 13  1  0  0  0  0 
 12 14  1  0  0  0  0 
 14 15  2  0  0  0  0 
 15 16  1  0  0  0  0 
 16 17  2  0  0  0  0 
 17 18  1  0  0  0  0 
 18 19  2  0  0  0  0 
 14 19  1  0  0  0  0 
 17 20  1  0  0  0  0 
 20 21  2  0  0  0  0 
 21 22  1  0  0  0  0 
 22 23  2  0  0  0  0 
 16 23  1  0  0  0  0 
 23 24  1  0  0  0  0 
 24 25  1  0  0  0  0 
 25 26  2  0  0  0  0 
 26 27  1  0  0  0  0 
 27 28  1  0  0  0  0 
 27 29  2  0  0  0  0 
 29 30  1  0  0  0  0 
 30 31  1  0  0  0  0 
 31 32  1  0  0  0  0 
 32 33  2  0  0  0  0 
 33 34  1  0  0  0  0 
 34 35  1  0  0  0  0 
 34 36  2  0  0  0  0 
 36 37  1  0  0  0  0 
 37 38  2  0  0  0  0 
 32 38  1  0  0  0  0 
 29 39  1  0  0  0  0 
 39 40  2  0  0  0  0 
 25 40  1  0  0  0  0 
M  END
> <SMILES>
CS(=O)(=O)CCNCC1=CC=C(O1)C1=CC2=C(C=C1)N=CN=C2NC1=CC(Cl)=C(OCC2=CC(F)=CC=C2)C=C1

$$$$

  CDK     06141809482D

 28 30  0  0  1  0  0  0  0  0999 V2000
   -6.2068    3.0006    0.0000 N   0  0  0  0  0  0  0  0  0  0  0  0
   -6.2070    1.5006    0.0000 C   0  0  1  0  0  0  0  0  0  0  0  0
   -4.9081    0.7504    0.0000 C   0  0  0  0  0  0  0  0  0  0  0  0
   -3.6089    1.5002    0.0000 C   0  0  0  0  0  0  0  0  0  0  0  0
   -3.6087    3.0002    0.0000 O   0  0  0  0  0  0  0  0  0  0  0  0
   -2.3100    0.7500    0.0000 N   0  0  0  0  0  0  0  0  0  0  0  0
   -2.3100   -0.7500    0.0000 C   0  0  0  0  0  0  0  0  0  0  0  0
   -1.0100   -1.5000    0.0000 C   0  0  0  0  0  0  0  0  0  0  0  0
    0.2900   -0.7500    0.0000 N   0  0  0  0  0  0  0  0  0  0  0  0
    0.2900    0.7500    0.0000 C   0  0  0  0  0  0  0  0  0  0  0  0
   -1.0100    1.5000    0.0000 C   0  0  0  0  0  0  0  0  0  0  0  0
    1.7200    1.2100    0.0000 N   0  0  0  0  0  0  0  0  0  0  0  0
    2.6000    0.0000    0.0000 N   0  0  0  0  0  0  0  0  0  0  0  0
    1.7200   -1.2100    0.0000 C   0  0  0  0  0  0  0  0  0  0  0  0
    2.1853   -2.6360    0.0000 C   0  0  0  0  0  0  0  0  0  0  0  0
    3.6529   -2.9461    0.0000 F   0  0  0  0  0  0  0  0  0  0  0  0
    0.7001   -2.8466    0.0000 F   0  0  0  0  0  0  0  0  0  0  0  0
    2.1348   -4.1352    0.0000 F   0  0  0  0  0  0  0  0  0  0  0  0
   -7.5062    0.7508    0.0000 C   0  0  0  0  0  0  0  0  0  0  0  0
   -8.8051    1.5010    0.0000 C   0  0  0  0  0  0  0  0  0  0  0  0
  -10.1051    0.7510    0.0000 C   0  0  0  0  0  0  0  0  0  0  0  0
  -11.4051    1.5010    0.0000 C   0  0  0  0  0  0  0  0  0  0  0  0
  -12.7040    0.7508    0.0000 F   0  0  0  0  0  0  0  0  0  0  0  0
  -11.4051    3.0010    0.0000 C   0  0  0  0  0  0  0  0  0  0  0  0
  -12.7040    3.7512    0.0000 F   0  0  0  0  0  0  0  0  0  0  0  0
  -10.1051    3.7510    0.0000 C   0  0  0  0  0  0  0  0  0  0  0  0
   -8.8051    3.0010    0.0000 C   0  0  0  0  0  0  0  0  0  0  0  0
   -7.5062    3.7512    0.0000 F   0  0  0  0  0  0  0  0  0  0  0  0
  2  1  1  1  0  0  0 
  2  3  1  0  0  0  0 
  3  4  1  0  0  0  0 
  4  5  2  0  0  0  0 
  4  6  1  0  0  0  0 
  6  7  1  0  0  0  0 
  7  8  1  0  0  0  0 
  8  9  1  0  0  0  0 
  9 10  1  0  0  0  0 
 10 11  1  0  0  0  0 
  6 11  1  0  0  0  0 
 10 12  2  0  0  0  0 
 12 13  1  0  0  0  0 
 13 14  2  0  0  0  0 
  9 14  1  0  0  0  0 
 14 15  1  0  0  0  0 
 15 16  1  0  0  0  0 
 15 17  1  0  0  0  0 
 15 18  1  0  0  0  0 
  2 19  1  0  0  0  0 
 19 20  1  0  0  0  0 
 20 21  2  0  0  0  0 
 21 22  1  0  0  0  0 
 22 23  1  0  0  0  0 
 22 24  2  0  0  0  0 
 24 25  1  0  0  0  0 
 24 26  1  0  0  0  0 
 26 27  2  0  0  0  0 
 20 27  1  0  0  0  0 
 27 28  1  0  0  0  0 
M  END
> <SMILES>
N[C@@H](CC(=O)N1CCN2C(C1)=NN=C2C(F)(F)F)CC1=CC(F)=C(F)C=C1F

$$$$

  CDK     06141809482D

 54 60  0  0  1  0  0  0  0  0999 V2000
  -20.3187  -16.3370    0.0000 H   0  0  0  0  0  0  0  0  0  0  0  0
  -19.7533  -14.9476    0.0000 C   0  0  2  0  0  0  0  0  0  0  0  0
  -21.2197  -14.6321    0.0000 C   0  0  0  0  0  0  0  0  0  0  0  0
  -18.4832  -15.7456    0.0000 O   0  0  0  0  0  0  0  0  0  0  0  0
  -18.7468  -13.8354    0.0000 C   0  0  2  0  0  0  0  0  0  0  0  0
  -18.1815  -12.4460    0.0000 H   0  0  0  0  0  0  0  0  0  0  0  0
  -20.0169  -13.0373    0.0000 C   0  0  0  0  0  0  0  0  0  0  0  0
  -21.3431  -13.7382    0.0000 C   0  0  0  0  0  0  0  0  0  0  0  0
  -17.2804  -14.1509    0.0000 N   0  0  0  0  0  0  0  0  0  0  0  0
  -16.6775  -15.5267    0.0000 N   0  0  0  0  0  0  0  0  0  0  0  0
  -15.1846  -15.3609    0.0000 C   0  0  0  0  0  0  0  0  0  0  0  0
  -14.8730  -13.9011    0.0000 N   0  0  0  0  0  0  0  0  0  0  0  0
  -16.1720  -13.1511    0.0000 C   0  0  0  0  0  0  0  0  0  0  0  0
  -16.3295  -11.6594    0.0000 O   0  0  0  0  0  0  0  0  0  0  0  0
  -13.5024  -13.2916    0.0000 C   0  0  0  0  0  0  0  0  0  0  0  0
  -12.3050  -14.1736    0.0000 C   0  0  0  0  0  0  0  0  0  0  0  0
  -10.9313  -13.5463    0.0000 C   0  0  0  0  0  0  0  0  0  0  0  0
  -10.7784  -12.0583    0.0000 C   0  0  0  0  0  0  0  0  0  0  0  0
  -12.0033  -11.1884    0.0000 C   0  0  0  0  0  0  0  0  0  0  0  0
  -13.3536  -11.7945    0.0000 C   0  0  0  0  0  0  0  0  0  0  0  0
   -9.4122  -11.4392    0.0000 N   0  0  0  0  0  0  0  0  0  0  0  0
   -8.1921  -12.3132    0.0000 C   0  0  0  0  0  0  0  0  0  0  0  0
   -6.8247  -11.6944    0.0000 C   0  0  0  0  0  0  0  0  0  0  0  0
   -6.6775  -10.2016    0.0000 N   0  0  0  0  0  0  0  0  0  0  0  0
   -7.8976   -9.3276    0.0000 C   0  0  0  0  0  0  0  0  0  0  0  0
   -9.2649   -9.9464    0.0000 C   0  0  0  0  0  0  0  0  0  0  0  0
   -5.3112   -9.5825    0.0000 C   0  0  0  0  0  0  0  0  0  0  0  0
   -5.1640   -8.0898    0.0000 C   0  0  0  0  0  0  0  0  0  0  0  0
   -3.7967   -7.4710    0.0000 C   0  0  0  0  0  0  0  0  0  0  0  0
   -2.5766   -8.3449    0.0000 C   0  0  0  0  0  0  0  0  0  0  0  0
   -1.2103   -7.7258    0.0000 O   0  0  0  0  0  0  0  0  0  0  0  0
    0.0090   -8.5995    0.0000 C   0  0  0  0  0  0  0  0  0  0  0  0
    1.3753   -7.9804    0.0000 C   0  0  2  0  0  0  0  0  0  0  0  0
    1.8486   -9.4038    0.0000 H   0  0  0  0  0  0  0  0  0  0  0  0
    0.6209   -6.6924    0.0000 C   0  0  0  0  0  0  0  0  0  0  0  0
    1.6113   -5.5632    0.0000 O   0  0  0  0  0  0  0  0  0  0  0  0
    2.9843   -6.1724    0.0000 C   0  0  2  0  0  0  0  0  0  0  0  0
    4.4533   -6.4757    0.0000 C   0  0  0  0  0  0  0  0  0  0  0  0
    4.9251   -7.8996    0.0000 N   0  0  0  0  0  0  0  0  0  0  0  0
    4.0507   -9.1093    0.0000 C   0  0  0  0  0  0  0  0  0  0  0  0
    4.9364  -10.3199    0.0000 N   0  0  0  0  0  0  0  0  0  0  0  0
    6.3540   -9.8527    0.0000 C   0  0  0  0  0  0  0  0  0  0  0  0
    6.3579   -8.3506    0.0000 N   0  0  0  0  0  0  0  0  0  0  0  0
    2.8402   -7.6580    0.0000 C   0  0  0  0  0  0  0  0  0  0  0  0
    3.4428   -4.7441    0.0000 C   0  0  0  0  0  0  0  0  0  0  0  0
    2.4347   -3.6322    0.0000 C   0  0  0  0  0  0  0  0  0  0  0  0
    0.9687   -3.9495    0.0000 F   0  0  0  0  0  0  0  0  0  0  0  0
    2.8928   -2.2030    0.0000 C   0  0  0  0  0  0  0  0  0  0  0  0
    4.3588   -1.8857    0.0000 C   0  0  0  0  0  0  0  0  0  0  0  0
    4.8173   -0.4574    0.0000 F   0  0  0  0  0  0  0  0  0  0  0  0
    5.3669   -2.9976    0.0000 C   0  0  0  0  0  0  0  0  0  0  0  0
    4.9088   -4.4268    0.0000 C   0  0  0  0  0  0  0  0  0  0  0  0
   -2.7238   -9.8377    0.0000 C   0  0  0  0  0  0  0  0  0  0  0  0
   -4.0911  -10.4565    0.0000 C   0  0  0  0  0  0  0  0  0  0  0  0
  2  1  1  6  0  0  0 
  2  3  1  0  0  0  0 
  2  4  1  1  0  0  0 
  2  5  1  0  0  0  0 
  5  6  1  1  0  0  0 
  5  7  1  0  0  0  0 
  7  8  1  0  0  0  0 
  5  9  1  6  0  0  0 
  9 10  1  0  0  0  0 
 10 11  2  0  0  0  0 
 11 12  1  0  0  0  0 
 12 13  1  0  0  0  0 
  9 13  1  0  0  0  0 
 13 14  2  0  0  0  0 
 12 15  1  0  0  0  0 
 15 16  2  0  0  0  0 
 16 17  1  0  0  0  0 
 17 18  2  0  0  0  0 
 18 19  1  0  0  0  0 
 19 20  2  0  0  0  0 
 15 20  1  0  0  0  0 
 18 21  1  0  0  0  0 
 21 22  1  0  0  0  0 
 22 23  1  0  0  0  0 
 23 24  1  0  0  0  0 
 24 25  1  0  0  0  0 
 25 26  1  0  0  0  0 
 21 26  1  0  0  0  0 
 24 27  1  0  0  0  0 
 27 28  2  0  0  0  0 
 28 29  1  0  0  0  0 
 29 30  2  0  0  0  0 
 30 31  1  0  0  0  0 
 31 32  1  0  0  0  0 
 33 32  1  6  0  0  0 
 33 34  1  1  0  0  0 
 33 35  1  0  0  0  0 
 35 36  1  0  0  0  0 
 36 37  1  0  0  0  0 
 37 38  1  6  0  0  0 
 38 39  1  0  0  0  0 
 39 40  1  0  0  0  0 
 40 41  2  0  0  0  0 
 41 42  1  0  0  0  0 
 42 43  2  0  0  0  0 
 39 43  1  0  0  0  0 
 37 44  1  0  0  0  0 
 33 44  1  0  0  0  0 
 37 45  1  1  0  0  0 
 45 46  2  0  0  0  0 
 46 47  1  0  0  0  0 
 46 48  1  0  0  0  0 
 48 49  2  0  0  0  0 
 49 50  1  0  0  0  0 
 49 51  1  0  0  0  0 
 51 52  2  0  0  0  0 
 45 52  1  0  0  0  0 
 30 53  1  0  0  0  0 
 53 54  2  0  0  0  0 
 27 54  1  0  0  0  0 
M  END
> <SMILES>
[H][C@@](C)(O)[C@]([H])(CC)N1N=CN(C1=O)C1=CC=C(C=C1)N1CCN(CC1)C1=CC=C(OC[C@]2([H])CO[C@](CN3C=NC=N3)(C2)C2=C(F)C=C(F)C=C2)C=C1

$$$$

  CDK     06141809482D

 29 31  0  0  0  0  0  0  0  0999 V2000
   15.1818    2.8621    0.0000 C   0  0  0  0  0  0  0  0  0  0  0  0
   13.8135    3.4767    0.0000 C   0  0  0  0  0  0  0  0  0  0  0  0
   12.5971    2.5990    0.0000 N   0  0  0  0  0  0  0  0  0  0  0  0
   12.7490    1.1067    0.0000 C   0  0  0  0  0  0  0  0  0  0  0  0
   14.1173    0.4921    0.0000 C   0  0  0  0  0  0  0  0  0  0  0  0
   11.2288    3.2136    0.0000 C   0  0  0  0  0  0  0  0  0  0  0  0
   10.0124    2.3359    0.0000 C   0  0  0  0  0  0  0  0  0  0  0  0
    8.6441    2.9505    0.0000 N   0  0  0  0  0  0  0  0  0  0  0  0
    7.4277    2.0728    0.0000 C   0  0  0  0  0  0  0  0  0  0  0  0
    7.5796    0.5805    0.0000 O   0  0  0  0  0  0  0  0  0  0  0  0
    6.0593    2.6874    0.0000 C   0  0  0  0  0  0  0  0  0  0  0  0
    5.7531    4.1483    0.0000 C   0  0  0  0  0  0  0  0  0  0  0  0
    6.7637    5.2567    0.0000 C   0  0  0  0  0  0  0  0  0  0  0  0
    4.2609    4.3196    0.0000 N   0  0  0  0  0  0  0  0  0  0  0  0
    3.6529    2.9461    0.0000 C   0  0  0  0  0  0  0  0  0  0  0  0
    2.1853    2.6360    0.0000 C   0  0  0  0  0  0  0  0  0  0  0  0
    1.1830    3.7520    0.0000 C   0  0  0  0  0  0  0  0  0  0  0  0
    1.4983    5.2145    0.0000 C   0  0  0  0  0  0  0  0  0  0  0  0
    2.8701    5.8212    0.0000 O   0  0  0  0  0  0  0  0  0  0  0  0
    0.2041    5.9652    0.0000 N   0  0  0  0  0  0  0  0  0  0  0  0
   -0.9176    4.9660    0.0000 C   0  0  0  0  0  0  0  0  0  0  0  0
   -0.3109    3.5942    0.0000 C   0  0  0  0  0  0  0  0  0  0  0  0
   -1.1964    2.3825    0.0000 C   0  0  0  0  0  0  0  0  0  0  0  0
   -2.6887    2.5426    0.0000 C   0  0  0  0  0  0  0  0  0  0  0  0
   -3.5732    1.3311    0.0000 F   0  0  0  0  0  0  0  0  0  0  0  0
   -3.2955    3.9144    0.0000 C   0  0  0  0  0  0  0  0  0  0  0  0
   -2.4099    5.1261    0.0000 C   0  0  0  0  0  0  0  0  0  0  0  0
    4.7575    1.9422    0.0000 C   0  0  0  0  0  0  0  0  0  0  0  0
    4.5945    0.4511    0.0000 C   0  0  0  0  0  0  0  0  0  0  0  0
  1  2  1  0  0  0  0 
  2  3  1  0  0  0  0 
  3  4  1  0  0  0  0 
  4  5  1  0  0  0  0 
  3  6  1  0  0  0  0 
  6  7  1  0  0  0  0 
  7  8  1  0  0  0  0 
  8  9  1  0  0  0  0 
  9 10  2  0  0  0  0 
  9 11  1  0  0  0  0 
 11 12  2  0  0  0  0 
 12 13  1  0  0  0  0 
 12 14  1  0  0  0  0 
 14 15  1  0  0  0  0 
 15 16  1  4  0  0  0 
 16 17  2  0  0  0  0 
 17 18  1  0  0  0  0 
 18 19  2  0  0  0  0 
 18 20  1  0  0  0  0 
 20 21  1  0  0  0  0 
 21 22  2  0  0  0  0 
 17 22  1  0  0  0  0 
 22 23  1  0  0  0  0 
 23 24  2  0  0  0  0 
 24 25  1  0  0  0  0 
 24 26  1  0  0  0  0 
 26 27  2  0  0  0  0 
 21 27  1  0  0  0  0 
 15 28  2  0  0  0  0 
 11 28  1  0  0  0  0 
 28 29  1  0  0  0  0 
M  END
> <SMILES>
CCN(CC)CCNC(=O)C1=C(C)NC(C=C2/C(=O)NC3=C2C=C(F)C=C3)=C1C

$$$$

  CDK     06141809482D

 38 45  0  0  0  0  0  0  0  0999 V2000
    5.1989    0.7398    0.0000 C   0  0  0  0  0  0  0  0  0  0  0  0
    3.9000    1.4900    0.0000 C   0  0  0  0  0  0  0  0  0  0  0  0
    3.9000    2.9900    0.0000 C   0  0  0  0  0  0  0  0  0  0  0  0
    2.6000    3.7400    0.0000 C   0  0  0  0  0  0  0  0  0  0  0  0
    1.3000    3.0300    0.0000 C   0  0  0  0  0  0  0  0  0  0  0  0
    1.3000    1.4900    0.0000 C   0  0  0  0  0  0  0  0  0  0  0  0
    2.6000    0.7400    0.0000 C   0  0  0  0  0  0  0  0  0  0  0  0
    2.6000   -0.7600    0.0000 C   0  0  0  0  0  0  0  0  0  0  0  0
    1.3000   -1.5100    0.0000 C   0  0  0  0  0  0  0  0  0  0  0  0
    1.3000   -3.0100    0.0000 C   0  0  0  0  0  0  0  0  0  0  0  0
    2.6000   -3.7600    0.0000 C   0  0  0  0  0  0  0  0  0  0  0  0
    3.9000   -3.0100    0.0000 C   0  0  0  0  0  0  0  0  0  0  0  0
    3.9000   -1.5100    0.0000 C   0  0  0  0  0  0  0  0  0  0  0  0
    5.1989   -0.7598    0.0000 C   0  0  0  0  0  0  0  0  0  0  0  0
    2.6000   -5.2600    0.0000 O   0  0  0  0  0  0  0  0  0  0  0  0
   -0.0000   -3.7600    0.0000 C   0  0  0  0  0  0  0  0  0  0  0  0
   -0.0000   -5.2600    0.0000 O   0  0  0  0  0  0  0  0  0  0  0  0
   -1.3000   -3.0100    0.0000 C   0  0  0  0  0  0  0  0  0  0  0  0
   -2.6000   -3.7600    0.0000 C   0  0  0  0  0  0  0  0  0  0  0  0
   -3.9000   -3.0100    0.0000 C   0  0  0  0  0  0  0  0  0  0  0  0
   -3.9000   -1.5100    0.0000 C   0  0  0  0  0  0  0  0  0  0  0  0
   -2.6000   -0.7600    0.0000 C   0  0  0  0  0  0  0  0  0  0  0  0
   -1.3000   -1.5100    0.0000 C   0  0  0  0  0  0  0  0  0  0  0  0
   -0.0000   -0.7600    0.0000 C   0  0  0  0  0  0  0  0  0  0  0  0
   -0.0000    0.7400    0.0000 C   0  0  0  0  0  0  0  0  0  0  0  0
   -1.3000    1.4900    0.0000 C   0  0  0  0  0  0  0  0  0  0  0  0
   -2.6000    0.7400    0.0000 C   0  0  0  0  0  0  0  0  0  0  0  0
   -3.9000    1.4900    0.0000 C   0  0  0  0  0  0  0  0  0  0  0  0
   -3.9000    3.0300    0.0000 C   0  0  0  0  0  0  0  0  0  0  0  0
   -2.6000    3.7800    0.0000 C   0  0  0  0  0  0  0  0  0  0  0  0
   -1.3000    3.0300    0.0000 C   0  0  0  0  0  0  0  0  0  0  0  0
    0.0000    3.7800    0.0000 C   0  0  0  0  0  0  0  0  0  0  0  0
    0.0000    5.2800    0.0000 O   0  0  0  0  0  0  0  0  0  0  0  0
   -2.6000    5.2800    0.0000 O   0  0  0  0  0  0  0  0  0  0  0  0
   -5.1989    0.7398    0.0000 O   0  0  0  0  0  0  0  0  0  0  0  0
   -5.1989   -0.7598    0.0000 O   0  0  0  0  0  0  0  0  0  0  0  0
   -2.6000   -5.2600    0.0000 O   0  0  0  0  0  0  0  0  0  0  0  0
    2.6175    5.2399    0.0000 O   0  0  0  0  0  0  0  0  0  0  0  0
  1  2  1  0  0  0  0 
  2  3  2  0  0  0  0 
  3  4  1  0  0  0  0 
  4  5  2  0  0  0  0 
  5  6  1  0  0  0  0 
  6  7  2  0  0  0  0 
  2  7  1  0  0  0  0 
  7  8  1  0  0  0  0 
  8  9  2  0  0  0  0 
  9 10  1  0  0  0  0 
 10 11  2  0  0  0  0 
 11 12  1  0  0  0  0 
 12 13  2  0  0  0  0 
  8 13  1  0  0  0  0 
 13 14  1  0  0  0  0 
 11 15  1  0  0  0  0 
 10 16  1  0  0  0  0 
 16 17  2  0  0  0  0 
 16 18  1  0  0  0  0 
 18 19  2  0  0  0  0 
 19 20  1  0  0  0  0 
 20 21  2  0  0  0  0 
 21 22  1  0  0  0  0 
 22 23  2  0  0  0  0 
 18 23  1  0  0  0  0 
 23 24  1  0  0  0  0 
  9 24  1  0  0  0  0 
 24 25  2  0  0  0  0 
  6 25  1  0  0  0  0 
 25 26  1  0  0  0  0 
 26 27  2  0  0  0  0 
 22 27  1  0  0  0  0 
 27 28  1  0  0  0  0 
 28 29  2  0  0  0  0 
 29 30  1  0  0  0  0 
 30 31  2  0  0  0  0 
 26 31  1  0  0  0  0 
 31 32  1  0  0  0  0 
  5 32  1  0  0  0  0 
 32 33  2  0  0  0  0 
 30 34  1  0  0  0  0 
 28 35  1  0  0  0  0 
 21 36  1  0  0  0  0 
 19 37  1  0  0  0  0 
  4 38  1  0  0  0  0 
M  END
> <SMILES>
CC1=CC(=C2C3=C1C4=C5C(=C(C=C4C)O)C(=O)C6=C(C=C(C7=C6C5=C3C8=C7C(=CC(=C8C2=O)O)O)O)O)O

$$$$

  CDK     06141809482D

 44 49  0  0  1  0  0  0  0  0999 V2000
    1.0082    1.3240    0.0000 H   0  0  0  0  0  0  0  0  0  0  0  0
    2.2200    0.4400    0.0000 C   0  0  2  0  0  0  0  0  0  0  0  0
    3.6500   -0.0200    0.0000 C   0  0  0  0  0  0  0  0  0  0  0  0
    4.5300    1.1900    0.0000 C   0  0  1  0  0  0  0  0  0  0  0  0
    3.6500    2.4000    0.0000 C   0  0  2  0  0  0  0  0  0  0  0  0
    4.1153    3.8260    0.0000 O   0  0  0  0  0  0  0  0  0  0  0  0
    3.1130    4.9420    0.0000 C   0  0  0  0  0  0  0  0  0  0  0  0
    3.5782    6.3680    0.0000 C   0  0  0  0  0  0  0  0  0  0  0  0
    1.6453    4.6319    0.0000 O   0  0  0  0  0  0  0  0  0  0  0  0
    2.2200    1.9400    0.0000 C   0  0  2  0  0  0  0  0  0  0  0  0
    2.3787    3.4316    0.0000 C   0  0  0  0  0  0  0  0  0  0  0  0
    0.9200    2.6900    0.0000 C   0  0  0  0  0  0  0  0  0  0  0  0
   -0.3800    1.9400    0.0000 C   0  0  0  0  0  0  0  0  0  0  0  0
   -0.3800    0.4400    0.0000 C   0  0  1  0  0  0  0  0  0  0  0  0
   -0.3807   -1.0600    0.0000 H   0  0  0  0  0  0  0  0  0  0  0  0
    0.9200   -0.3100    0.0000 C   0  0  1  0  0  0  0  0  0  0  0  0
    2.2189   -1.0602    0.0000 H   0  0  0  0  0  0  0  0  0  0  0  0
    0.9200   -1.8100    0.0000 C   0  0  0  0  0  0  0  0  0  0  0  0
   -0.3800   -2.5600    0.0000 C   0  0  0  0  0  0  0  0  0  0  0  0
   -1.6800   -1.8100    0.0000 C   0  0  1  0  0  0  0  0  0  0  0  0
   -1.6800   -3.3100    0.0000 H   0  0  0  0  0  0  0  0  0  0  0  0
   -2.9800   -2.5600    0.0000 C   0  0  0  0  0  0  0  0  0  0  0  0
   -4.2800   -1.8100    0.0000 C   0  0  2  0  0  0  0  0  0  0  0  0
   -5.5789   -2.5602    0.0000 O   0  0  0  0  0  0  0  0  0  0  0  0
   -5.5787   -4.0602    0.0000 C   0  0  0  0  0  0  0  0  0  0  0  0
   -6.8776   -4.8104    0.0000 C   0  0  0  0  0  0  0  0  0  0  0  0
   -4.2795   -4.8100    0.0000 O   0  0  0  0  0  0  0  0  0  0  0  0
   -4.2800   -0.3100    0.0000 C   0  0  2  0  0  0  0  0  0  0  0  0
   -2.9800    0.4400    0.0000 C   0  0  0  0  0  0  0  0  0  0  0  0
   -1.6800   -0.3100    0.0000 C   0  0  2  0  0  0  0  0  0  0  0  0
   -1.6800    1.1900    0.0000 C   0  0  0  0  0  0  0  0  0  0  0  0
   -5.5789    0.4402    0.0000 N   0  0  0  0  0  0  0  0  0  0  0  0
   -6.8786   -0.3104    0.0000 C   0  0  0  0  0  0  0  0  0  0  0  0
   -8.1775    0.4398    0.0000 C   0  0  0  0  0  0  0  0  0  0  0  0
   -8.1768    1.9406    0.0000 C   0  0  0  0  0  0  0  0  0  0  0  0
   -6.8771    2.6912    0.0000 C   0  0  0  0  0  0  0  0  0  0  0  0
   -5.5782    1.9410    0.0000 C   0  0  0  0  0  0  0  0  0  0  0  0
    6.0300    1.1900    0.0000 N   0  0  0  0  0  0  0  0  0  0  0  0
    5.7692   -0.2872    0.0000 C   0  0  0  0  0  0  0  0  0  0  0  0
    5.7691    2.6680    0.0000 C   0  0  0  0  0  0  0  0  0  0  0  0
    6.9182    3.6320    0.0000 C   0  0  0  0  0  0  0  0  0  0  0  0
    8.3283    3.1181    0.0000 C   0  0  0  0  0  0  0  0  0  0  0  0
    8.5893    1.6401    0.0000 C   0  0  0  0  0  0  0  0  0  0  0  0
    7.4401    0.6761    0.0000 C   0  0  0  0  0  0  0  0  0  0  0  0
  2  1  1  6  0  0  0 
  2  3  1  0  0  0  0 
  3  4  1  0  0  0  0 
  4  5  1  0  0  0  0 
  5  6  1  1  0  0  0 
  6  7  1  0  0  0  0 
  7  8  1  0  0  0  0 
  7  9  2  0  0  0  0 
  5 10  1  0  0  0  0 
  2 10  1  0  0  0  0 
 10 11  1  1  0  0  0 
 10 12  1  0  0  0  0 
 12 13  1  0  0  0  0 
 13 14  1  0  0  0  0 
 14 15  1  6  0  0  0 
 14 16  1  0  0  0  0 
  2 16  1  0  0  0  0 
 16 17  1  1  0  0  0 
 16 18  1  0  0  0  0 
 18 19  1  0  0  0  0 
 19 20  1  0  0  0  0 
 20 21  1  6  0  0  0 
 20 22  1  0  0  0  0 
 22 23  1  0  0  0  0 
 23 24  1  6  0  0  0 
 24 25  1  0  0  0  0 
 25 26  1  0  0  0  0 
 25 27  2  0  0  0  0 
 23 28  1  0  0  0  0 
 28 29  1  0  0  0  0 
 29 30  1  0  0  0  0 
 14 30  1  0  0  0  0 
 20 30  1  0  0  0  0 
 30 31  1  1  0  0  0 
 28 32  1  1  0  0  0 
 32 33  1  0  0  0  0 
 33 34  1  0  0  0  0 
 34 35  1  0  0  0  0 
 35 36  1  0  0  0  0 
 36 37  1  0  0  0  0 
 32 37  1  0  0  0  0 
  4 38  1  1  0  0  0 
 38 39  1  0  0  0  0 
 38 40  1  0  0  0  0 
 40 41  1  0  0  0  0 
 41 42  1  0  0  0  0 
 42 43  1  0  0  0  0 
 43 44  1  0  0  0  0 
 38 44  1  0  0  0  0 
M  CHG  1  38   1
M  END
> <SMILES>
[H][C@@]12C[C@@H]([C@H](OC(C)=O)[C@@]1(C)CC[C@@]1([H])[C@@]2([H])CC[C@@]2([H])C[C@H](OC(C)=O)[C@H](C[C@]12C)N1CCCCC1)[N+]1(C)CCCCC1

$$$$

  CDK     06141809482D

 30 32  0  0  1  0  0  0  0  0999 V2000
    9.6118    4.1813    0.0000 C   0  0  0  0  0  0  0  0  0  0  0  0
    8.1291    4.4082    0.0000 C   0  0  0  0  0  0  0  0  0  0  0  0
    7.1912    3.2375    0.0000 O   0  0  0  0  0  0  0  0  0  0  0  0
    5.7085    3.4644    0.0000 C   0  0  0  0  0  0  0  0  0  0  0  0
    5.1636    4.8620    0.0000 O   0  0  0  0  0  0  0  0  0  0  0  0
    4.7706    2.2938    0.0000 C   0  0  2  0  0  0  0  0  0  0  0  0
    5.3155    0.8962    0.0000 C   0  0  0  0  0  0  0  0  0  0  0  0
    6.7982    0.6694    0.0000 C   0  0  0  0  0  0  0  0  0  0  0  0
    7.3431   -0.7282    0.0000 C   0  0  0  0  0  0  0  0  0  0  0  0
    8.8268   -0.9547    0.0000 C   0  0  0  0  0  0  0  0  0  0  0  0
    9.3716   -2.3522    0.0000 C   0  0  0  0  0  0  0  0  0  0  0  0
    8.4329   -3.5232    0.0000 C   0  0  0  0  0  0  0  0  0  0  0  0
    6.9492   -3.2967    0.0000 C   0  0  0  0  0  0  0  0  0  0  0  0
    6.4044   -1.8992    0.0000 C   0  0  0  0  0  0  0  0  0  0  0  0
    3.2879    2.5207    0.0000 N   0  0  0  0  0  0  0  0  0  0  0  0
    2.3500    1.3500    0.0000 C   0  0  1  0  0  0  0  0  0  0  0  0
    3.0000    0.0000    0.0000 C   0  0  0  0  0  0  0  0  0  0  0  0
    2.3500   -1.3500    0.0000 C   0  0  0  0  0  0  0  0  0  0  0  0
    0.8900   -1.6900    0.0000 C   0  0  0  0  0  0  0  0  0  0  0  0
   -0.2800   -0.7500    0.0000 N   0  0  0  0  0  0  0  0  0  0  0  0
   -1.5800   -1.5000    0.0000 C   0  0  0  0  0  0  0  0  0  0  0  0
   -2.8800   -0.7500    0.0000 C   0  0  0  0  0  0  0  0  0  0  0  0
   -2.8800    0.7500    0.0000 C   0  0  0  0  0  0  0  0  0  0  0  0
   -1.5800    1.5000    0.0000 C   0  0  2  0  0  0  0  0  0  0  0  0
   -0.2800    0.7500    0.0000 N   0  0  0  0  0  0  0  0  0  0  0  0
    0.8900    1.6900    0.0000 C   0  0  0  0  0  0  0  0  0  0  0  0
    0.5568    3.1525    0.0000 O   0  0  0  0  0  0  0  0  0  0  0  0
   -1.5800    3.0000    0.0000 C   0  0  0  0  0  0  0  0  0  0  0  0
   -2.8790    3.7500    0.0000 O   0  0  0  0  0  0  0  0  0  0  0  0
   -0.2810    3.7500    0.0000 O   0  0  0  0  0  0  0  0  0  0  0  0
  1  2  1  0  0  0  0 
  2  3  1  0  0  0  0 
  3  4  1  0  0  0  0 
  4  5  2  0  0  0  0 
  4  6  1  0  0  0  0 
  6  7  1  0  0  0  0 
  7  8  1  0  0  0  0 
  8  9  1  0  0  0  0 
  9 10  2  0  0  0  0 
 10 11  1  0  0  0  0 
 11 12  2  0  0  0  0 
 12 13  1  0  0  0  0 
 13 14  2  0  0  0  0 
  9 14  1  0  0  0  0 
  6 15  1  6  0  0  0 
 16 15  1  1  0  0  0 
 16 17  1  0  0  0  0 
 17 18  1  0  0  0  0 
 18 19  1  0  0  0  0 
 19 20  1  0  0  0  0 
 20 21  1  0  0  0  0 
 21 22  1  0  0  0  0 
 22 23  1  0  0  0  0 
 23 24  1  0  0  0  0 
 24 25  1  0  0  0  0 
 20 25  1  0  0  0  0 
 25 26  1  0  0  0  0 
 16 26  1  0  0  0  0 
 26 27  2  0  0  0  0 
 24 28  1  1  0  0  0 
 28 29  1  0  0  0  0 
 28 30  2  0  0  0  0 
M  END
> <SMILES>
CCOC(=O)[C@H](CCC1=CC=CC=C1)N[C@H]1CCCN2CCC[C@H](N2C1=O)C(O)=O

$$$$

  CDK     06141809482D

 36 39  0  0  1  0  0  0  0  0999 V2000
   11.9574   10.2570    0.0000 C   0  0  0  0  0  0  0  0  0  0  0  0
   12.2177    8.7797    0.0000 O   0  0  0  0  0  0  0  0  0  0  0  0
   11.0685    7.8157    0.0000 C   0  0  0  0  0  0  0  0  0  0  0  0
   11.3289    6.3384    0.0000 C   0  0  0  0  0  0  0  0  0  0  0  0
   12.7383    5.8252    0.0000 O   0  0  0  0  0  0  0  0  0  0  0  0
   10.1797    5.3744    0.0000 O   0  0  0  0  0  0  0  0  0  0  0  0
   10.4400    3.8971    0.0000 C   0  0  2  0  0  0  0  0  0  0  0  0
    8.9400    3.8971    0.0000 C   0  0  0  0  0  0  0  0  0  0  0  0
    8.1900    5.1962    0.0000 C   0  0  0  0  0  0  0  0  0  0  0  0
    6.6900    5.1962    0.0000 N   0  0  0  0  0  0  0  0  0  0  0  0
    5.9400    3.8971    0.0000 C   0  0  0  0  0  0  0  0  0  0  0  0
    5.9400    6.4952    0.0000 C   0  0  0  0  0  0  0  0  0  0  0  0
    4.4400    6.4952    0.0000 C   0  0  0  0  0  0  0  0  0  0  0  0
    3.6900    7.7942    0.0000 C   0  0  0  0  0  0  0  0  0  0  0  0
    2.1900    7.7942    0.0000 C   0  0  0  0  0  0  0  0  0  0  0  0
    1.3100    6.5842    0.0000 N   0  0  0  0  0  0  0  0  0  0  0  0
   -0.1200    7.0442    0.0000 C   0  0  0  0  0  0  0  0  0  0  0  0
   -1.4200    6.2942    0.0000 C   0  0  0  0  0  0  0  0  0  0  0  0
   -2.7200    7.0442    0.0000 C   0  0  0  0  0  0  0  0  0  0  0  0
   -2.7200    8.5442    0.0000 C   0  0  0  0  0  0  0  0  0  0  0  0
   -1.4200    9.2942    0.0000 C   0  0  0  0  0  0  0  0  0  0  0  0
   -0.1200    8.5442    0.0000 C   0  0  0  0  0  0  0  0  0  0  0  0
    1.3100    9.0042    0.0000 N   0  0  0  0  0  0  0  0  0  0  0  0
   11.8496    4.4098    0.0000 C   0  0  0  0  0  0  0  0  0  0  0  0
   12.9988    3.4445    0.0000 C   0  0  0  0  0  0  0  0  0  0  0  0
   12.7384    1.9665    0.0000 C   0  0  0  0  0  0  0  0  0  0  0  0
   11.3287    1.4537    0.0000 C   0  0  0  0  0  0  0  0  0  0  0  0
   11.0683   -0.0243    0.0000 C   0  0  0  0  0  0  0  0  0  0  0  0
   12.2175   -0.9897    0.0000 C   0  0  0  0  0  0  0  0  0  0  0  0
   13.6271   -0.4769    0.0000 C   0  0  0  0  0  0  0  0  0  0  0  0
   14.7761   -1.4412    0.0000 F   0  0  0  0  0  0  0  0  0  0  0  0
   13.8876    1.0011    0.0000 C   0  0  0  0  0  0  0  0  0  0  0  0
   10.1795    2.4191    0.0000 C   0  0  2  0  0  0  0  0  0  0  0  0
    8.7699    1.9063    0.0000 C   0  0  0  0  0  0  0  0  0  0  0  0
    8.5091    0.4292    0.0000 C   0  0  0  0  0  0  0  0  0  0  0  0
    7.6210    2.8708    0.0000 C   0  0  0  0  0  0  0  0  0  0  0  0
  1  2  1  0  0  0  0 
  2  3  1  0  0  0  0 
  3  4  1  0  0  0  0 
  4  5  2  0  0  0  0 
  4  6  1  0  0  0  0 
  7  6  1  6  0  0  0 
  7  8  1  1  0  0  0 
  8  9  1  0  0  0  0 
  9 10  1  0  0  0  0 
 10 11  1  0  0  0  0 
 10 12  1  0  0  0  0 
 12 13  1  0  0  0  0 
 13 14  1  0  0  0  0 
 14 15  1  0  0  0  0 
 15 16  2  0  0  0  0 
 16 17  1  0  0  0  0 
 17 18  2  0  0  0  0 
 18 19  1  0  0  0  0 
 19 20  2  0  0  0  0 
 20 21  1  0  0  0  0 
 21 22  2  0  0  0  0 
 17 22  1  0  0  0  0 
 22 23  1  0  0  0  0 
 15 23  1  0  0  0  0 
  7 24  1  0  0  0  0 
 24 25  1  0  0  0  0 
 25 26  1  0  0  0  0 
 26 27  2  0  0  0  0 
 27 28  1  0  0  0  0 
 28 29  2  0  0  0  0 
 29 30  1  0  0  0  0 
 30 31  1  0  0  0  0 
 30 32  2  0  0  0  0 
 26 32  1  0  0  0  0 
 33 27  1  6  0  0  0 
  7 33  1  0  0  0  0 
 33 34  1  0  0  0  0 
 34 35  1  0  0  0  0 
 34 36  1  0  0  0  0 
M  END
> <SMILES>
COCC(=O)O[C@]1(CCN(C)CCCC2=NC3=CC=CC=C3N2)CCC2=C(C=CC(F)=C2)[C@@H]1C(C)C

$$$$

  CDK     06141809482D

 57 64  0  0  1  0  0  0  0  0999 V2000
   -1.6800   -3.3100    0.0000 H   0  0  0  0  0  0  0  0  0  0  0  0
   -1.6800   -1.8100    0.0000 C   0  0  1  0  0  0  0  0  0  0  0  0
   -0.3800   -2.5600    0.0000 C   0  0  0  0  0  0  0  0  0  0  0  0
    0.9200   -1.8100    0.0000 C   0  0  0  0  0  0  0  0  0  0  0  0
    0.9200   -0.3100    0.0000 C   0  0  2  0  0  0  0  0  0  0  0  0
    0.9207    1.1900    0.0000 H   0  0  0  0  0  0  0  0  0  0  0  0
   -0.3800    0.4400    0.0000 C   0  0  2  0  0  0  0  0  0  0  0  0
   -0.3807   -1.0600    0.0000 H   0  0  0  0  0  0  0  0  0  0  0  0
   -0.3800    1.9400    0.0000 C   0  0  0  0  0  0  0  0  0  0  0  0
    0.9200    2.6900    0.0000 C   0  0  0  0  0  0  0  0  0  0  0  0
    2.2200    1.9400    0.0000 C   0  0  2  0  0  0  0  0  0  0  0  0
    2.3787    3.4316    0.0000 C   0  0  0  0  0  0  0  0  0  0  0  0
    3.6500    2.4000    0.0000 C   0  0  2  0  0  0  0  0  0  0  0  0
    4.5300    1.1900    0.0000 C   0  0  0  0  0  0  0  0  0  0  0  0
    3.6500   -0.0200    0.0000 C   0  0  0  0  0  0  0  0  0  0  0  0
    2.2200    0.4400    0.0000 C   0  0  2  0  0  0  0  0  0  0  0  0
    2.3787   -1.0516    0.0000 O   0  0  0  0  0  0  0  0  0  0  0  0
    4.1153    3.8260    0.0000 C   0  0  0  0  0  0  0  0  0  0  0  0
    3.2356    5.0410    0.0000 C   0  0  0  0  0  0  0  0  0  0  0  0
    4.1161    6.2463    0.0000 C   0  0  0  0  0  0  0  0  0  0  0  0
    3.6514    7.6725    0.0000 O   0  0  0  0  0  0  0  0  0  0  0  0
    5.5465    5.7882    0.0000 O   0  0  0  0  0  0  0  0  0  0  0  0
    5.5352    4.2862    0.0000 C   0  0  0  0  0  0  0  0  0  0  0  0
   -1.6800   -0.3100    0.0000 C   0  0  2  0  0  0  0  0  0  0  0  0
   -1.6800    1.1900    0.0000 C   0  0  0  0  0  0  0  0  0  0  0  0
   -2.9800    0.4400    0.0000 C   0  0  0  0  0  0  0  0  0  0  0  0
   -4.2800   -0.3100    0.0000 C   0  0  0  0  0  0  0  0  0  0  0  0
   -4.2800   -1.8100    0.0000 C   0  0  1  0  0  0  0  0  0  0  0  0
   -2.9800   -2.5600    0.0000 C   0  0  0  0  0  0  0  0  0  0  0  0
   -5.5789   -2.5602    0.0000 O   0  0  0  0  0  0  0  0  0  0  0  0
   -6.8781   -1.8104    0.0000 C   0  0  1  0  0  0  0  0  0  0  0  0
   -6.8786   -0.3104    0.0000 C   0  0  0  0  0  0  0  0  0  0  0  0
   -8.1788    0.4392    0.0000 C   0  0  2  0  0  0  0  0  0  0  0  0
   -8.1793    1.9392    0.0000 O   0  0  0  0  0  0  0  0  0  0  0  0
   -9.4786   -0.3112    0.0000 C   0  0  2  0  0  0  0  0  0  0  0  0
  -10.7777    0.4385    0.0000 O   0  0  0  0  0  0  0  0  0  0  0  0
  -12.0766   -0.3117    0.0000 C   0  0  1  0  0  0  0  0  0  0  0  0
  -13.3759    0.4379    0.0000 C   0  0  0  0  0  0  0  0  0  0  0  0
  -14.6752   -0.3133    0.0000 C   0  0  2  0  0  0  0  0  0  0  0  0
  -15.9745    0.4363    0.0000 O   0  0  0  0  0  0  0  0  0  0  0  0
  -14.6752   -1.8142    0.0000 C   0  0  2  0  0  0  0  0  0  0  0  0
  -15.9741   -2.5644    0.0000 O   0  0  0  0  0  0  0  0  0  0  0  0
  -17.2733   -1.8146    0.0000 C   0  0  1  0  0  0  0  0  0  0  0  0
  -17.2737   -0.3146    0.0000 C   0  0  0  0  0  0  0  0  0  0  0  0
  -18.5740    0.4350    0.0000 C   0  0  2  0  0  0  0  0  0  0  0  0
  -18.5745    1.9350    0.0000 O   0  0  0  0  0  0  0  0  0  0  0  0
  -19.8737   -0.3154    0.0000 C   0  0  2  0  0  0  0  0  0  0  0  0
  -21.1729    0.4344    0.0000 O   0  0  0  0  0  0  0  0  0  0  0  0
  -19.8733   -1.8154    0.0000 C   0  0  1  0  0  0  0  0  0  0  0  0
  -21.1719   -2.5660    0.0000 C   0  0  0  0  0  0  0  0  0  0  0  0
  -18.5730   -2.5650    0.0000 O   0  0  0  0  0  0  0  0  0  0  0  0
  -13.3759   -2.5637    0.0000 C   0  0  1  0  0  0  0  0  0  0  0  0
  -13.3752   -4.0637    0.0000 C   0  0  0  0  0  0  0  0  0  0  0  0
  -12.0766   -1.8125    0.0000 O   0  0  0  0  0  0  0  0  0  0  0  0
   -9.4781   -1.8112    0.0000 C   0  0  1  0  0  0  0  0  0  0  0  0
  -10.7768   -2.5619    0.0000 C   0  0  0  0  0  0  0  0  0  0  0  0
   -8.1778   -2.5608    0.0000 O   0  0  0  0  0  0  0  0  0  0  0  0
  2  1  1  1  0  0  0 
  2  3  1  0  0  0  0 
  3  4  1  0  0  0  0 
  4  5  1  0  0  0  0 
  5  6  1  1  0  0  0 
  5  7  1  0  0  0  0 
  7  8  1  6  0  0  0 
  7  9  1  0  0  0  0 
  9 10  1  0  0  0  0 
 10 11  1  0  0  0  0 
 11 12  1  1  0  0  0 
 11 13  1  0  0  0  0 
 13 14  1  0  0  0  0 
 14 15  1  0  0  0  0 
 15 16  1  0  0  0  0 
  5 16  1  0  0  0  0 
 11 16  1  0  0  0  0 
 16 17  1  1  0  0  0 
 13 18  1  1  0  0  0 
 18 19  2  0  0  0  0 
 19 20  1  0  0  0  0 
 20 21  2  0  0  0  0 
 20 22  1  0  0  0  0 
 22 23  1  0  0  0  0 
 18 23  1  0  0  0  0 
  7 24  1  0  0  0  0 
  2 24  1  0  0  0  0 
 24 25  1  1  0  0  0 
 24 26  1  0  0  0  0 
 26 27  1  0  0  0  0 
 27 28  1  0  0  0  0 
 28 29  1  0  0  0  0 
  2 29  1  0  0  0  0 
 28 30  1  1  0  0  0 
 31 30  1  6  0  0  0 
 31 32  1  0  0  0  0 
 32 33  1  0  0  0  0 
 33 34  1  1  0  0  0 
 33 35  1  0  0  0  0 
 35 36  1  1  0  0  0 
 37 36  1  6  0  0  0 
 37 38  1  0  0  0  0 
 38 39  1  0  0  0  0 
 39 40  1  1  0  0  0 
 39 41  1  0  0  0  0 
 41 42  1  1  0  0  0 
 43 42  1  6  0  0  0 
 43 44  1  0  0  0  0 
 44 45  1  0  0  0  0 
 45 46  1  1  0  0  0 
 45 47  1  0  0  0  0 
 47 48  1  1  0  0  0 
 47 49  1  0  0  0  0 
 49 50  1  6  0  0  0 
 49 51  1  0  0  0  0 
 43 51  1  0  0  0  0 
 41 52  1  0  0  0  0 
 52 53  1  6  0  0  0 
 52 54  1  0  0  0  0 
 37 54  1  0  0  0  0 
 35 55  1  0  0  0  0 
 55 56  1  6  0  0  0 
 55 57  1  0  0  0  0 
 31 57  1  0  0  0  0 
M  END
> <SMILES>
[H][C@]12CC[C@]3([H])[C@]([H])(CC[C@]4(C)[C@H](CC[C@]34O)C3=CC(=O)OC3)[C@@]1(C)CC[C@@H](C2)O[C@H]1C[C@H](O)[C@H](O[C@H]2C[C@H](O)[C@H](O[C@H]3C[C@H](O)[C@H](O)[C@@H](C)O3)[C@@H](C)O2)[C@@H](C)O1

$$$$

  CDK     06141809482D

 16 16  0  0  0  0  0  0  0  0999 V2000
   -6.4961    0.3959    0.0000 C   0  0  0  0  0  0  0  0  0  0  0  0
   -5.1948    1.1419    0.0000 N   0  0  0  0  0  0  0  0  0  0  0  0
   -5.1902    2.6419    0.0000 C   0  0  0  0  0  0  0  0  0  0  0  0
   -3.8981    0.3879    0.0000 C   0  0  0  0  0  0  0  0  0  0  0  0
   -3.9026   -1.1121    0.0000 O   0  0  0  0  0  0  0  0  0  0  0  0
   -2.5967    1.1340    0.0000 O   0  0  0  0  0  0  0  0  0  0  0  0
   -1.3000    0.3800    0.0000 C   0  0  0  0  0  0  0  0  0  0  0  0
   -0.0000    1.1200    0.0000 C   0  0  0  0  0  0  0  0  0  0  0  0
    1.3000    0.3800    0.0000 C   0  0  0  0  0  0  0  0  0  0  0  0
    1.3000   -1.1200    0.0000 C   0  0  0  0  0  0  0  0  0  0  0  0
   -0.0000   -1.8800    0.0000 C   0  0  0  0  0  0  0  0  0  0  0  0
   -1.3000   -1.1200    0.0000 C   0  0  0  0  0  0  0  0  0  0  0  0
    2.5967    1.1340    0.0000 N   0  0  0  0  0  0  0  0  0  0  0  0
    3.8981    0.3879    0.0000 C   0  0  0  0  0  0  0  0  0  0  0  0
    3.5574    2.2860    0.0000 C   0  0  0  0  0  0  0  0  0  0  0  0
    1.6291    2.2801    0.0000 C   0  0  0  0  0  0  0  0  0  0  0  0
  1  2  1  0  0  0  0 
  2  3  1  0  0  0  0 
  2  4  1  0  0  0  0 
  4  5  2  0  0  0  0 
  4  6  1  0  0  0  0 
  6  7  1  0  0  0  0 
  7  8  2  0  0  0  0 
  8  9  1  0  0  0  0 
  9 10  2  0  0  0  0 
 10 11  1  0  0  0  0 
 11 12  2  0  0  0  0 
  7 12  1  0  0  0  0 
  9 13  1  0  0  0  0 
 13 14  1  0  0  0  0 
 13 15  1  0  0  0  0 
 13 16  1  0  0  0  0 
M  CHG  1  13   1
M  END
> <SMILES>
CN(C)C(=O)OC1=CC(=CC=C1)[N+](C)(C)C

$$$$

  CDK     06141809482D

 28 31  0  0  1  0  0  0  0  0999 V2000
    1.0573    1.0428    0.0000 H   0  0  0  0  0  0  0  0  0  0  0  0
    2.2700    0.1600    0.0000 C   0  0  2  0  0  0  0  0  0  0  0  0
    3.6900   -0.3000    0.0000 C   0  0  0  0  0  0  0  0  0  0  0  0
    4.5700    0.9100    0.0000 C   0  0  0  0  0  0  0  0  0  0  0  0
    3.6900    2.1200    0.0000 C   0  0  2  0  0  0  0  0  0  0  0  0
    4.1538    3.5465    0.0000 O   0  0  0  0  0  0  0  0  0  0  0  0
    5.6211    3.8581    0.0000 C   0  0  0  0  0  0  0  0  0  0  0  0
    6.6246    2.7431    0.0000 O   0  0  0  0  0  0  0  0  0  0  0  0
    6.0849    5.2846    0.0000 C   0  0  0  0  0  0  0  0  0  0  0  0
    7.5522    5.5961    0.0000 C   0  0  0  0  0  0  0  0  0  0  0  0
    2.2700    1.6600    0.0000 C   0  0  2  0  0  0  0  0  0  0  0  0
    2.4272    3.1517    0.0000 C   0  0  0  0  0  0  0  0  0  0  0  0
    0.9700    2.4100    0.0000 C   0  0  0  0  0  0  0  0  0  0  0  0
   -0.3300    1.6600    0.0000 C   0  0  0  0  0  0  0  0  0  0  0  0
   -0.3300    0.1600    0.0000 C   0  0  1  0  0  0  0  0  0  0  0  0
   -0.3307   -1.3400    0.0000 H   0  0  0  0  0  0  0  0  0  0  0  0
    0.9700   -0.5900    0.0000 C   0  0  1  0  0  0  0  0  0  0  0  0
    2.2689   -1.3402    0.0000 H   0  0  0  0  0  0  0  0  0  0  0  0
    0.9700   -2.0900    0.0000 C   0  0  0  0  0  0  0  0  0  0  0  0
   -0.3300   -2.8400    0.0000 C   0  0  0  0  0  0  0  0  0  0  0  0
   -1.6300   -2.0900    0.0000 C   0  0  0  0  0  0  0  0  0  0  0  0
   -2.9300   -2.8400    0.0000 C   0  0  0  0  0  0  0  0  0  0  0  0
   -4.2300   -2.0900    0.0000 C   0  0  0  0  0  0  0  0  0  0  0  0
   -5.5289   -2.8402    0.0000 O   0  0  0  0  0  0  0  0  0  0  0  0
   -4.2300   -0.5900    0.0000 C   0  0  0  0  0  0  0  0  0  0  0  0
   -2.9300    0.1600    0.0000 C   0  0  0  0  0  0  0  0  0  0  0  0
   -1.6300   -0.5900    0.0000 C   0  0  2  0  0  0  0  0  0  0  0  0
   -1.6300    0.9100    0.0000 C   0  0  0  0  0  0  0  0  0  0  0  0
  2  1  1  6  0  0  0 
  2  3  1  0  0  0  0 
  3  4  1  0  0  0  0 
  4  5  1  0  0  0  0 
  5  6  1  1  0  0  0 
  6  7  1  0  0  0  0 
  7  8  2  0  0  0  0 
  7  9  1  0  0  0  0 
  9 10  1  0  0  0  0 
  5 11  1  0  0  0  0 
  2 11  1  0  0  0  0 
 11 12  1  1  0  0  0 
 11 13  1  0  0  0  0 
 13 14  1  0  0  0  0 
 14 15  1  0  0  0  0 
 15 16  1  6  0  0  0 
 15 17  1  0  0  0  0 
  2 17  1  0  0  0  0 
 17 18  1  1  0  0  0 
 17 19  1  0  0  0  0 
 19 20  1  0  0  0  0 
 20 21  1  0  0  0  0 
 21 22  2  0  0  0  0 
 22 23  1  0  0  0  0 
 23 24  2  0  0  0  0 
 23 25  1  0  0  0  0 
 25 26  1  0  0  0  0 
 26 27  1  0  0  0  0 
 15 27  1  0  0  0  0 
 21 27  1  0  0  0  0 
 27 28  1  1  0  0  0 
M  END
> <SMILES>
[H][C@@]12CC[C@H](OC(=O)CC)[C@@]1(C)CC[C@@]1([H])[C@@]2([H])CCC2=CC(=O)CC[C@]12C

$$$$

  CDK     06141809482D

 49 49  0  0  1  0  0  0  0  0999 V2000
   16.9930    5.5173    0.0000 Na  0  0  0  0  0  0  0  0  0  0  0  0
   34.7359    5.5459    0.0000 Na  0  0  0  0  0  0  0  0  0  0  0  0
   30.1668    2.9602    0.0000 N   0  0  0  0  0  0  0  0  0  0  0  0
   30.1797    4.4602    0.0000 C   0  0  1  0  0  0  0  0  0  0  0  0
   28.8872    5.2213    0.0000 C   0  0  0  0  0  0  0  0  0  0  0  0
   27.5818    4.4826    0.0000 C   0  0  0  0  0  0  0  0  0  0  0  0
   26.3076    5.2355    0.0000 C   0  0  0  0  0  0  0  0  0  0  0  0
   25.0056    4.5065    0.0000 C   0  0  0  0  0  0  0  0  0  0  0  0
   23.7155    5.2718    0.0000 I   0  0  0  0  0  0  0  0  0  0  0  0
   24.9899    3.0057    0.0000 C   0  0  0  0  0  0  0  0  0  0  0  0
   23.6908    2.2559    0.0000 O   0  0  0  0  0  0  0  0  0  0  0  0
   22.3919    3.0062    0.0000 C   0  0  0  0  0  0  0  0  0  0  0  0
   21.0919    2.2562    0.0000 C   0  0  0  0  0  0  0  0  0  0  0  0
   19.7919    3.0062    0.0000 C   0  0  0  0  0  0  0  0  0  0  0  0
   18.4930    2.2559    0.0000 I   0  0  0  0  0  0  0  0  0  0  0  0
   19.7919    4.5062    0.0000 C   0  0  0  0  0  0  0  0  0  0  0  0
   18.4930    5.2564    0.0000 O   0  0  0  0  0  0  0  0  0  0  0  0
   21.0919    5.2562    0.0000 C   0  0  0  0  0  0  0  0  0  0  0  0
   22.3919    4.5062    0.0000 C   0  0  0  0  0  0  0  0  0  0  0  0
   26.2794    2.2786    0.0000 C   0  0  0  0  0  0  0  0  0  0  0  0
   26.2720    0.7786    0.0000 I   0  0  0  0  0  0  0  0  0  0  0  0
   27.5712    2.9904    0.0000 C   0  0  0  0  0  0  0  0  0  0  0  0
   31.4852    5.1989    0.0000 C   0  0  0  0  0  0  0  0  0  0  0  0
   32.7777    4.4378    0.0000 O   0  0  0  0  0  0  0  0  0  0  0  0
   31.4981    6.6989    0.0000 O   0  0  0  0  0  0  0  0  0  0  0  0
   12.4239    2.9316    0.0000 N   0  0  0  0  0  0  0  0  0  0  0  0
   12.4368    4.4315    0.0000 C   0  0  1  0  0  0  0  0  0  0  0  0
   11.1443    5.1927    0.0000 C   0  0  0  0  0  0  0  0  0  0  0  0
    9.8388    4.4539    0.0000 C   0  0  0  0  0  0  0  0  0  0  0  0
    8.5647    5.2069    0.0000 C   0  0  0  0  0  0  0  0  0  0  0  0
    7.2627    4.4779    0.0000 C   0  0  0  0  0  0  0  0  0  0  0  0
    5.9726    5.2431    0.0000 I   0  0  0  0  0  0  0  0  0  0  0  0
    7.2470    2.9771    0.0000 C   0  0  0  0  0  0  0  0  0  0  0  0
    5.9478    2.2273    0.0000 O   0  0  0  0  0  0  0  0  0  0  0  0
    4.6489    2.9775    0.0000 C   0  0  0  0  0  0  0  0  0  0  0  0
    3.3489    2.2275    0.0000 C   0  0  0  0  0  0  0  0  0  0  0  0
    2.0489    2.9775    0.0000 C   0  0  0  0  0  0  0  0  0  0  0  0
    0.7500    2.2273    0.0000 I   0  0  0  0  0  0  0  0  0  0  0  0
    2.0489    4.4775    0.0000 C   0  0  0  0  0  0  0  0  0  0  0  0
    0.7500    5.2277    0.0000 O   0  0  0  0  0  0  0  0  0  0  0  0
    3.3489    5.2275    0.0000 C   0  0  0  0  0  0  0  0  0  0  0  0
    3.3489    6.7275    0.0000 I   0  0  0  0  0  0  0  0  0  0  0  0
    4.6489    4.4775    0.0000 C   0  0  0  0  0  0  0  0  0  0  0  0
    8.5364    2.2500    0.0000 C   0  0  0  0  0  0  0  0  0  0  0  0
    8.5290    0.7500    0.0000 I   0  0  0  0  0  0  0  0  0  0  0  0
    9.8282    2.9618    0.0000 C   0  0  0  0  0  0  0  0  0  0  0  0
   13.7422    5.1703    0.0000 C   0  0  0  0  0  0  0  0  0  0  0  0
   15.0348    4.4091    0.0000 O   0  0  0  0  0  0  0  0  0  0  0  0
   13.7552    6.6702    0.0000 O   0  0  0  0  0  0  0  0  0  0  0  0
  4  3  1  1  0  0  0 
  4  5  1  0  0  0  0 
  5  6  1  0  0  0  0 
  6  7  2  0  0  0  0 
  7  8  1  0  0  0  0 
  8  9  1  0  0  0  0 
  8 10  2  0  0  0  0 
 10 11  1  0  0  0  0 
 11 12  1  0  0  0  0 
 12 13  2  0  0  0  0 
 13 14  1  0  0  0  0 
 14 15  1  0  0  0  0 
 14 16  2  0  0  0  0 
 16 17  1  0  0  0  0 
 16 18  1  0  0  0  0 
 18 19  2  0  0  0  0 
 12 19  1  0  0  0  0 
 10 20  1  0  0  0  0 
 20 21  1  0  0  0  0 
 20 22  2  0  0  0  0 
  6 22  1  0  0  0  0 
  4 23  1  0  0  0  0 
 23 24  1  0  0  0  0 
 23 25  2  0  0  0  0 
 27 26  1  1  0  0  0 
 27 28  1  0  0  0  0 
 28 29  1  0  0  0  0 
 29 30  2  0  0  0  0 
 30 31  1  0  0  0  0 
 31 32  1  0  0  0  0 
 31 33  2  0  0  0  0 
 33 34  1  0  0  0  0 
 34 35  1  0  0  0  0 
 35 36  2  0  0  0  0 
 36 37  1  0  0  0  0 
 37 38  1  0  0  0  0 
 37 39  2  0  0  0  0 
 39 40  1  0  0  0  0 
 39 41  1  0  0  0  0 
 41 42  1  0  0  0  0 
 41 43  2  0  0  0  0 
 35 43  1  0  0  0  0 
 33 44  1  0  0  0  0 
 44 45  1  0  0  0  0 
 44 46  2  0  0  0  0 
 29 46  1  0  0  0  0 
 27 47  1  0  0  0  0 
 47 48  1  0  0  0  0 
 47 49  2  0  0  0  0 
M  CHG  1   1   1
M  CHG  1   2   1
M  CHG  1  24  -1
M  CHG  1  48  -1
M  END
> <SMILES>
[Na+].[Na+].N[C@@H](CC1=CC(I)=C(OC2=CC(I)=C(O)C=C2)C(I)=C1)C([O-])=O.N[C@@H](CC1=CC(I)=C(OC2=CC(I)=C(O)C(I)=C2)C(I)=C1)C([O-])=O

$$$$

  CDK     06141809482D

 26 29  0  0  0  0  0  0  0  0999 V2000
   -4.5153   -2.0274    0.0000 C   0  0  0  0  0  0  0  0  0  0  0  0
   -3.7653   -0.7284    0.0000 N   0  0  0  0  0  0  0  0  0  0  0  0
   -2.2695   -0.8405    0.0000 C   0  0  0  0  0  0  0  0  0  0  0  0
   -1.2492    0.2591    0.0000 C   0  0  0  0  0  0  0  0  0  0  0  0
    0.2132   -0.0747    0.0000 C   0  0  0  0  0  0  0  0  0  0  0  0
    0.6553   -1.5081    0.0000 C   0  0  0  0  0  0  0  0  0  0  0  0
    3.0536   -2.0555    0.0000 Cl  0  0  0  0  0  0  0  0  0  0  0  0
   -0.3649   -2.6076    0.0000 C   0  0  0  0  0  0  0  0  0  0  0  0
   -1.8273   -2.2739    0.0000 C   0  0  0  0  0  0  0  0  0  0  0  0
   -1.4728    1.7423    0.0000 C   0  0  0  0  0  0  0  0  0  0  0  0
   -0.1737    2.4923    0.0000 O   0  0  0  0  0  0  0  0  0  0  0  0
   -0.1737    3.9923    0.0000 C   0  0  0  0  0  0  0  0  0  0  0  0
    1.1253    4.7423    0.0000 C   0  0  0  0  0  0  0  0  0  0  0  0
   -1.4728    4.7423    0.0000 C   0  0  0  0  0  0  0  0  0  0  0  0
   -2.7718    3.9923    0.0000 C   0  0  0  0  0  0  0  0  0  0  0  0
   -4.0708    4.7423    0.0000 O   0  0  0  0  0  0  0  0  0  0  0  0
   -2.7718    2.4923    0.0000 N   0  0  0  0  0  0  0  0  0  0  0  0
   -4.1681    1.9443    0.0000 C   0  0  0  0  0  0  0  0  0  0  0  0
   -4.6103    0.5110    0.0000 C   0  0  0  0  0  0  0  0  0  0  0  0
   -6.0935    0.2874    0.0000 O   0  0  0  0  0  0  0  0  0  0  0  0
    0.7436    0.6750    0.0000 C   0  0  0  0  0  0  0  0  0  0  0  0
    1.9834    1.5208    0.0000 C   0  0  0  0  0  0  0  0  0  0  0  0
    3.3348    0.8700    0.0000 C   0  0  0  0  0  0  0  0  0  0  0  0
    3.4465   -0.6267    0.0000 C   0  0  0  0  0  0  0  0  0  0  0  0
    2.2067   -1.4725    0.0000 C   0  0  0  0  0  0  0  0  0  0  0  0
    0.8553   -0.8217    0.0000 C   0  0  0  0  0  0  0  0  0  0  0  0
  1  2  1  0  0  0  0 
  2  3  1  0  0  0  0 
  3  4  2  0  0  0  0 
  4  5  1  0  0  0  0 
  5  6  2  0  0  0  0 
  6  7  1  0  0  0  0 
  6  8  1  0  0  0  0 
  8  9  2  0  0  0  0 
  3  9  1  0  0  0  0 
  4 10  1  0  0  0  0 
 10 11  1  0  0  0  0 
 11 12  1  0  0  0  0 
 12 13  1  0  0  0  0 
 12 14  2  0  0  0  0 
 14 15  1  0  0  0  0 
 15 16  2  0  0  0  0 
 15 17  1  0  0  0  0 
 10 17  1  0  0  0  0 
 17 18  1  0  0  0  0 
 18 19  1  0  0  0  0 
  2 19  1  0  0  0  0 
 19 20  2  0  0  0  0 
 10 21  1  0  0  0  0 
 21 22  2  0  0  0  0 
 22 23  1  0  0  0  0 
 23 24  2  0  0  0  0 
 24 25  1  0  0  0  0 
 25 26  2  0  0  0  0 
 21 26  1  0  0  0  0 
M  END
> <SMILES>
CN1C2=C(C=C(Cl)C=C2)C2(OC(C)=CC(=O)N2CC1=O)C1=CC=CC=C1

$$$$

  CDK     06141809482D

 21 23  0  0  0  0  0  0  0  0999 V2000
    5.4781    0.7504    0.0000 O   0  0  0  0  0  0  0  0  0  0  0  0
    4.1789    1.5002    0.0000 N   0  0  0  0  0  0  0  0  0  0  0  0
    4.1787    3.0002    0.0000 O   0  0  0  0  0  0  0  0  0  0  0  0
    2.8800    0.7500    0.0000 C   0  0  0  0  0  0  0  0  0  0  0  0
    1.5800    1.5000    0.0000 C   0  0  0  0  0  0  0  0  0  0  0  0
    0.2800    0.7500    0.0000 C   0  0  0  0  0  0  0  0  0  0  0  0
    0.2800   -0.7500    0.0000 C   0  0  0  0  0  0  0  0  0  0  0  0
   -0.8900   -1.6900    0.0000 N   0  0  0  0  0  0  0  0  0  0  0  0
   -2.3500   -1.3500    0.0000 C   0  0  0  0  0  0  0  0  0  0  0  0
   -3.2879   -2.5207    0.0000 O   0  0  0  0  0  0  0  0  0  0  0  0
   -3.0000    0.0000    0.0000 C   0  0  0  0  0  0  0  0  0  0  0  0
   -2.3500    1.3500    0.0000 N   0  0  0  0  0  0  0  0  0  0  0  0
   -0.8900    1.6900    0.0000 C   0  0  0  0  0  0  0  0  0  0  0  0
   -0.5568    3.1525    0.0000 C   0  0  0  0  0  0  0  0  0  0  0  0
   -1.6577    4.1726    0.0000 C   0  0  0  0  0  0  0  0  0  0  0  0
   -1.3245    5.6351    0.0000 C   0  0  0  0  0  0  0  0  0  0  0  0
    0.1096    6.0776    0.0000 C   0  0  0  0  0  0  0  0  0  0  0  0
    1.2106    5.0575    0.0000 C   0  0  0  0  0  0  0  0  0  0  0  0
    0.8773    3.5950    0.0000 C   0  0  0  0  0  0  0  0  0  0  0  0
    1.5800   -1.5000    0.0000 C   0  0  0  0  0  0  0  0  0  0  0  0
    2.8800   -0.7500    0.0000 C   0  0  0  0  0  0  0  0  0  0  0  0
  1  2  1  0  0  0  0 
  2  3  2  0  0  0  0 
  2  4  1  0  0  0  0 
  4  5  2  0  0  0  0 
  5  6  1  0  0  0  0 
  6  7  2  0  0  0  0 
  7  8  1  0  0  0  0 
  8  9  1  0  0  0  0 
  9 10  2  0  0  0  0 
  9 11  1  0  0  0  0 
 11 12  1  0  0  0  0 
 12 13  2  0  0  0  0 
  6 13  1  0  0  0  0 
 13 14  1  0  0  0  0 
 14 15  2  0  0  0  0 
 15 16  1  0  0  0  0 
 16 17  2  0  0  0  0 
 17 18  1  0  0  0  0 
 18 19  2  0  0  0  0 
 14 19  1  0  0  0  0 
  7 20  1  0  0  0  0 
 20 21  2  0  0  0  0 
  4 21  1  0  0  0  0 
M  CHG  1   1  -1
M  CHG  1   2   1
M  END
> <SMILES>
[O-][N+](=O)C1=CC2=C(NC(=O)CN=C2C2=CC=CC=C2)C=C1

$$$$

  CDK     06141809482D

 46 49  0  0  1  0  0  0  0  0999 V2000
    2.5981    3.0000    0.0000 C   0  0  0  0  0  0  0  0  0  0  0  0
    1.2990    3.7500    0.0000 C   0  0  0  0  0  0  0  0  0  0  0  0
   -0.0000    3.0000    0.0000 C   0  0  0  0  0  0  0  0  0  0  0  0
    1.2990    5.2500    0.0000 C   0  0  2  0  0  0  0  0  0  0  0  0
    2.5981    6.0000    0.0000 N   0  0  0  0  0  0  0  0  0  0  0  0
    2.5976    7.5008    0.0000 C   0  0  0  0  0  0  0  0  0  0  0  0
    3.8966    8.2508    0.0000 C   0  0  0  0  0  0  0  0  0  0  0  0
    5.1962    7.5000    0.0000 C   0  0  0  0  0  0  0  0  0  0  0  0
    5.1966    5.9992    0.0000 N   0  0  0  0  0  0  0  0  0  0  0  0
    3.8976    5.2492    0.0000 C   0  0  0  0  0  0  0  0  0  0  0  0
    3.8974    3.7492    0.0000 O   0  0  0  0  0  0  0  0  0  0  0  0
    0.0000    6.0000    0.0000 C   0  0  0  0  0  0  0  0  0  0  0  0
    0.0000    7.5000    0.0000 O   0  0  0  0  0  0  0  0  0  0  0  0
   -1.2990    5.2500    0.0000 N   0  0  0  0  0  0  0  0  0  0  0  0
   -2.5981    6.0000    0.0000 C   0  0  2  0  0  0  0  0  0  0  0  0
   -2.5981    7.5000    0.0000 C   0  0  0  0  0  0  0  0  0  0  0  0
   -3.8971    8.2500    0.0000 C   0  0  2  0  0  0  0  0  0  0  0  0
   -5.1962    7.5000    0.0000 O   0  0  0  0  0  0  0  0  0  0  0  0
   -3.8971    9.7500    0.0000 C   0  0  2  0  0  0  0  0  0  0  0  0
   -2.5981   10.5000    0.0000 C   0  0  0  0  0  0  0  0  0  0  0  0
   -2.5981   12.0000    0.0000 C   0  0  0  0  0  0  0  0  0  0  0  0
   -3.8981   12.7500    0.0000 C   0  0  0  0  0  0  0  0  0  0  0  0
   -3.8981   14.2500    0.0000 C   0  0  0  0  0  0  0  0  0  0  0  0
   -2.5981   15.0000    0.0000 C   0  0  0  0  0  0  0  0  0  0  0  0
   -1.2981   14.2500    0.0000 C   0  0  0  0  0  0  0  0  0  0  0  0
   -1.2981   12.7500    0.0000 C   0  0  0  0  0  0  0  0  0  0  0  0
   -5.1962   10.5000    0.0000 N   0  0  0  0  0  0  0  0  0  0  0  0
   -6.4952    9.7500    0.0000 C   0  0  0  0  0  0  0  0  0  0  0  0
   -6.4952    8.2500    0.0000 O   0  0  0  0  0  0  0  0  0  0  0  0
   -7.7942   10.5000    0.0000 C   0  0  0  0  0  0  0  0  0  0  0  0
   -9.0933    9.7500    0.0000 O   0  0  0  0  0  0  0  0  0  0  0  0
  -10.3923   10.5000    0.0000 C   0  0  0  0  0  0  0  0  0  0  0  0
  -11.6846    9.7405    0.0000 C   0  0  0  0  0  0  0  0  0  0  0  0
  -11.6705    8.2406    0.0000 C   0  0  0  0  0  0  0  0  0  0  0  0
  -12.9747   10.4664    0.0000 C   0  0  0  0  0  0  0  0  0  0  0  0
  -12.9820   11.9340    0.0000 C   0  0  0  0  0  0  0  0  0  0  0  0
  -11.7203   12.7212    0.0000 C   0  0  0  0  0  0  0  0  0  0  0  0
  -10.3807   12.0029    0.0000 C   0  0  0  0  0  0  0  0  0  0  0  0
   -9.0906   12.7683    0.0000 C   0  0  0  0  0  0  0  0  0  0  0  0
   -3.8971    5.2500    0.0000 C   0  0  0  0  0  0  0  0  0  0  0  0
   -3.8971    3.7500    0.0000 C   0  0  0  0  0  0  0  0  0  0  0  0
   -2.5971    3.0000    0.0000 C   0  0  0  0  0  0  0  0  0  0  0  0
   -2.5971    1.5000    0.0000 C   0  0  0  0  0  0  0  0  0  0  0  0
   -3.8971    0.7500    0.0000 C   0  0  0  0  0  0  0  0  0  0  0  0
   -5.1971    1.5000    0.0000 C   0  0  0  0  0  0  0  0  0  0  0  0
   -5.1971    3.0000    0.0000 C   0  0  0  0  0  0  0  0  0  0  0  0
  1  2  1  0  0  0  0 
  2  3  1  0  0  0  0 
  2  4  1  0  0  0  0 
  4  5  1  1  0  0  0 
  5  6  1  0  0  0  0 
  6  7  1  0  0  0  0 
  7  8  1  0  0  0  0 
  8  9  1  0  0  0  0 
  9 10  1  0  0  0  0 
  5 10  1  0  0  0  0 
 10 11  2  0  0  0  0 
  4 12  1  0  0  0  0 
 12 13  2  0  0  0  0 
 12 14  1  0  0  0  0 
 15 14  1  1  0  0  0 
 15 16  1  0  0  0  0 
 16 17  1  0  0  0  0 
 17 18  1  6  0  0  0 
 17 19  1  0  0  0  0 
 19 20  1  0  0  0  0 
 20 21  1  0  0  0  0 
 21 22  2  0  0  0  0 
 22 23  1  0  0  0  0 
 23 24  2  0  0  0  0 
 24 25  1  0  0  0  0 
 25 26  2  0  0  0  0 
 21 26  1  0  0  0  0 
 19 27  1  1  0  0  0 
 27 28  1  0  0  0  0 
 28 29  2  0  0  0  0 
 28 30  1  0  0  0  0 
 30 31  1  0  0  0  0 
 31 32  1  0  0  0  0 
 32 33  2  0  0  0  0 
 33 34  1  0  0  0  0 
 33 35  1  0  0  0  0 
 35 36  2  0  0  0  0 
 36 37  1  0  0  0  0 
 37 38  2  0  0  0  0 
 32 38  1  0  0  0  0 
 38 39  1  0  0  0  0 
 15 40  1  0  0  0  0 
 40 41  1  0  0  0  0 
 41 42  2  0  0  0  0 
 42 43  1  0  0  0  0 
 43 44  2  0  0  0  0 
 44 45  1  0  0  0  0 
 45 46  2  0  0  0  0 
 41 46  1  0  0  0  0 
M  END
> <SMILES>
CC(C)[C@H](N1CCCNC1=O)C(=O)N[C@H](C[C@H](O)[C@H](CC1=CC=CC=C1)NC(=O)COC1=C(C)C=CC=C1C)CC1=CC=CC=C1

$$$$

  CDK     06141809482D

 20 22  0  0  0  0  0  0  0  0999 V2000
    7.8238   -3.7398    0.0000 O   0  0  0  0  0  0  0  0  0  0  0  0
    6.5152   -3.0068    0.0000 C   0  0  0  0  0  0  0  0  0  0  0  0
    6.4823   -1.4628    0.0000 C   0  0  0  0  0  0  0  0  0  0  0  0
    5.1944   -0.7440    0.0000 C   0  0  0  0  0  0  0  0  0  0  0  0
    3.8989   -1.5002    0.0000 C   0  0  0  0  0  0  0  0  0  0  0  0
    3.8914   -2.9751    0.0000 C   0  0  0  0  0  0  0  0  0  0  0  0
    5.2197   -3.7629    0.0000 C   0  0  0  0  0  0  0  0  0  0  0  0
    2.6000   -0.7500    0.0000 C   0  0  0  0  0  0  0  0  0  0  0  0
    2.6000    0.7500    0.0000 C   0  0  0  0  0  0  0  0  0  0  0  0
    1.3000    1.5000    0.0000 O   0  0  0  0  0  0  0  0  0  0  0  0
    0.0000    0.7500    0.0000 C   0  0  0  0  0  0  0  0  0  0  0  0
    0.0000   -0.7500    0.0000 C   0  0  0  0  0  0  0  0  0  0  0  0
   -1.3000   -1.5000    0.0000 C   0  0  0  0  0  0  0  0  0  0  0  0
   -1.3000   -3.0000    0.0000 O   0  0  0  0  0  0  0  0  0  0  0  0
   -2.6000   -0.7500    0.0000 C   0  0  0  0  0  0  0  0  0  0  0  0
   -2.6000    0.7500    0.0000 C   0  0  0  0  0  0  0  0  0  0  0  0
   -3.8989    1.5002    0.0000 O   0  0  0  0  0  0  0  0  0  0  0  0
   -1.3000    1.5000    0.0000 C   0  0  0  0  0  0  0  0  0  0  0  0
    1.3000   -1.5000    0.0000 C   0  0  0  0  0  0  0  0  0  0  0  0
    1.3000   -3.0000    0.0000 O   0  0  0  0  0  0  0  0  0  0  0  0
  1  2  1  0  0  0  0 
  2  3  2  0  0  0  0 
  3  4  1  0  0  0  0 
  4  5  2  0  0  0  0 
  5  6  1  0  0  0  0 
  6  7  2  0  0  0  0 
  2  7  1  0  0  0  0 
  5  8  1  0  0  0  0 
  8  9  2  0  0  0  0 
  9 10  1  0  0  0  0 
 10 11  1  0  0  0  0 
 11 12  2  0  0  0  0 
 12 13  1  0  0  0  0 
 13 14  1  0  0  0  0 
 13 15  2  0  0  0  0 
 15 16  1  0  0  0  0 
 16 17  1  0  0  0  0 
 16 18  2  0  0  0  0 
 11 18  1  0  0  0  0 
 12 19  1  0  0  0  0 
  8 19  1  0  0  0  0 
 19 20  2  0  0  0  0 
M  END
> <SMILES>
OC1=CC=C(C=C1)C1=COC2=C(C(O)=CC(O)=C2)C1=O

$$$$

  CDK     06141809482D

 38 45  0  0  1  0  0  0  0  0999 V2000
   -0.8541   -6.0992    0.0000 H   0  0  0  0  0  0  0  0  0  0  0  0
    0.1100   -4.9500    0.0000 C   0  0  2  0  0  0  0  0  0  0  0  0
    1.4100   -4.2000    0.0000 C   0  0  0  0  0  0  0  0  0  0  0  0
    1.4100   -2.7000    0.0000 C   0  0  1  0  0  0  0  0  0  0  0  0
    2.9015   -2.8599    0.0000 H   0  0  0  0  0  0  0  0  0  0  0  0
    0.1100   -1.9500    0.0000 O   0  0  0  0  0  0  0  0  0  0  0  0
   -1.1900   -2.7000    0.0000 C   0  0  2  0  0  0  0  0  0  0  0  0
   -2.6780   -2.8897    0.0000 C   0  0  0  0  0  0  0  0  0  0  0  0
   -1.6800   -0.8100    0.0000 N   0  0  0  0  0  0  0  0  0  0  0  0
   -3.0500   -0.2000    0.0000 C   0  0  0  0  0  0  0  0  0  0  0  0
   -4.4200   -0.8100    0.0000 C   0  0  0  0  0  0  0  0  0  0  0  0
   -5.6400    0.0700    0.0000 C   0  0  0  0  0  0  0  0  0  0  0  0
   -5.4800    1.5700    0.0000 C   0  0  0  0  0  0  0  0  0  0  0  0
   -4.1100    2.1800    0.0000 C   0  0  0  0  0  0  0  0  0  0  0  0
   -2.9000    1.2900    0.0000 C   0  0  0  0  0  0  0  0  0  0  0  0
   -1.4300    1.6100    0.0000 C   0  0  0  0  0  0  0  0  0  0  0  0
   -0.6800    2.9000    0.0000 C   0  0  0  0  0  0  0  0  0  0  0  0
   -1.1400    4.3300    0.0000 C   0  0  0  0  0  0  0  0  0  0  0  0
    0.0700    5.2100    0.0000 N   0  0  0  0  0  0  0  0  0  0  0  0
    1.2800    4.3300    0.0000 C   0  0  0  0  0  0  0  0  0  0  0  0
    2.7060    4.7953    0.0000 O   0  0  0  0  0  0  0  0  0  0  0  0
    0.8200    2.9000    0.0000 C   0  0  0  0  0  0  0  0  0  0  0  0
    1.5700    1.6100    0.0000 C   0  0  0  0  0  0  0  0  0  0  0  0
    3.0400    1.2900    0.0000 C   0  0  0  0  0  0  0  0  0  0  0  0
    4.2500    2.1800    0.0000 C   0  0  0  0  0  0  0  0  0  0  0  0
    5.6200    1.5700    0.0000 C   0  0  0  0  0  0  0  0  0  0  0  0
    5.7800    0.0700    0.0000 C   0  0  0  0  0  0  0  0  0  0  0  0
    4.5700   -0.8100    0.0000 C   0  0  0  0  0  0  0  0  0  0  0  0
    3.1900   -0.2000    0.0000 C   0  0  0  0  0  0  0  0  0  0  0  0
    1.8200   -0.8100    0.0000 N   0  0  0  0  0  0  0  0  0  0  0  0
    0.8200    0.3100    0.0000 C   0  0  0  0  0  0  0  0  0  0  0  0
   -0.6800    0.3100    0.0000 C   0  0  0  0  0  0  0  0  0  0  0  0
   -1.1900   -4.2000    0.0000 C   0  0  2  0  0  0  0  0  0  0  0  0
   -2.6672   -3.9397    0.0000 H   0  0  0  0  0  0  0  0  0  0  0  0
   -1.7027   -5.6096    0.0000 O   0  0  0  0  0  0  0  0  0  0  0  0
   -3.1799   -5.8704    0.0000 C   0  0  0  0  0  0  0  0  0  0  0  0
    1.0741   -6.0992    0.0000 N   0  0  0  0  0  0  0  0  0  0  0  0
    0.5609   -7.5087    0.0000 C   0  0  0  0  0  0  0  0  0  0  0  0
  2  1  1  6  0  0  0 
  2  3  1  0  0  0  0 
  3  4  1  0  0  0  0 
  4  5  1  6  0  0  0 
  4  6  1  0  0  0  0 
  6  7  1  0  0  0  0 
  7  8  1  6  0  0  0 
  7  9  1  0  0  0  0 
  9 10  1  0  0  0  0 
 10 11  2  0  0  0  0 
 11 12  1  0  0  0  0 
 12 13  2  0  0  0  0 
 13 14  1  0  0  0  0 
 14 15  2  0  0  0  0 
 10 15  1  0  0  0  0 
 15 16  1  0  0  0  0 
 16 17  2  0  0  0  0 
 17 18  1  0  0  0  0 
 18 19  1  0  0  0  0 
 19 20  1  0  0  0  0 
 20 21  2  0  0  0  0 
 20 22  1  0  0  0  0 
 17 22  1  0  0  0  0 
 22 23  2  0  0  0  0 
 23 24  1  0  0  0  0 
 24 25  2  0  0  0  0 
 25 26  1  0  0  0  0 
 26 27  2  0  0  0  0 
 27 28  1  0  0  0  0 
 28 29  2  0  0  0  0 
 24 29  1  0  0  0  0 
 29 30  1  0  0  0  0 
  4 30  1  0  0  0  0 
 30 31  1  0  0  0  0 
 23 31  1  0  0  0  0 
 31 32  2  0  0  0  0 
  9 32  1  0  0  0  0 
 16 32  1  0  0  0  0 
  7 33  1  0  0  0  0 
  2 33  1  0  0  0  0 
 33 34  1  6  0  0  0 
 33 35  1  1  0  0  0 
 35 36  1  0  0  0  0 
  2 37  1  1  0  0  0 
 37 38  1  0  0  0  0 
M  END
> <SMILES>
[H][C@]1(C[C@@]2([H])O[C@](C)(N3C4=CC=CC=C4C4=C5CNC(=O)C5=C5C6=CC=CC=C6N2C5=C34)[C@]1([H])OC)NC

$$$$

  CDK     06141809482D

 35 34  0  0  1  0  0  0  0  0999 V2000
   33.7750    1.8509    0.0000 C   0  0  0  0  0  0  0  0  0  0  0  0
   32.4760    2.6009    0.0000 C   0  0  0  0  0  0  0  0  0  0  0  0
   31.1769    1.8509    0.0000 C   0  0  0  0  0  0  0  0  0  0  0  0
   29.8779    2.6009    0.0000 C   0  0  0  0  0  0  0  0  0  0  0  0
   28.5788    1.8509    0.0000 C   0  0  0  0  0  0  0  0  0  0  0  0
   27.2798    2.6009    0.0000 C   0  0  0  0  0  0  0  0  0  0  0  0
   25.9808    1.8509    0.0000 C   0  0  0  0  0  0  0  0  0  0  0  0
   24.6817    2.6009    0.0000 C   0  0  0  0  0  0  0  0  0  0  0  0
   23.3827    1.8509    0.0000 C   0  0  0  0  0  0  0  0  0  0  0  0
   22.0836    2.6009    0.0000 C   0  0  0  0  0  0  0  0  0  0  0  0
   20.7846    1.8509    0.0000 C   0  0  0  0  0  0  0  0  0  0  0  0
   19.4856    2.6009    0.0000 C   0  0  0  0  0  0  0  0  0  0  0  0
   18.1865    1.8509    0.0000 C   0  0  0  0  0  0  0  0  0  0  0  0
   16.8875    2.6009    0.0000 C   0  0  0  0  0  0  0  0  0  0  0  0
   15.5885    1.8509    0.0000 C   0  0  0  0  0  0  0  0  0  0  0  0
   14.2894    2.6009    0.0000 C   0  0  0  0  0  0  0  0  0  0  0  0
   12.9904    1.8509    0.0000 O   0  0  0  0  0  0  0  0  0  0  0  0
   11.6913    2.6009    0.0000 C   0  0  0  0  0  0  0  0  0  0  0  0
   10.3923    1.8509    0.0000 C   0  0  2  0  0  0  0  0  0  0  0  0
    9.0933    2.6009    0.0000 C   0  0  0  0  0  0  0  0  0  0  0  0
    7.7942    1.8509    0.0000 O   0  0  0  0  0  0  0  0  0  0  0  0
    6.4952    2.6009    0.0000 P   0  0  1  0  0  0  0  0  0  0  0  0
    7.4594    3.7500    0.0000 O   0  0  0  0  0  0  0  0  0  0  0  0
    5.5310    3.7500    0.0000 O   0  0  0  0  0  0  0  0  0  0  0  0
    5.1962    1.8509    0.0000 O   0  0  0  0  0  0  0  0  0  0  0  0
    3.8971    2.6009    0.0000 C   0  0  0  0  0  0  0  0  0  0  0  0
    2.5981    1.8509    0.0000 C   0  0  0  0  0  0  0  0  0  0  0  0
    1.2990    2.6009    0.0000 N   0  0  0  0  0  0  0  0  0  0  0  0
   -0.0000    1.8509    0.0000 C   0  0  0  0  0  0  0  0  0  0  0  0
    2.2632    3.7500    0.0000 C   0  0  0  0  0  0  0  0  0  0  0  0
    0.3349    3.7500    0.0000 C   0  0  0  0  0  0  0  0  0  0  0  0
   10.3923    0.3509    0.0000 O   0  0  0  0  0  0  0  0  0  0  0  0
    9.0933   -0.3991    0.0000 C   0  0  0  0  0  0  0  0  0  0  0  0
    7.7942    0.3509    0.0000 C   0  0  0  0  0  0  0  0  0  0  0  0
    9.0933   -1.8991    0.0000 O   0  0  0  0  0  0  0  0  0  0  0  0
  1  2  1  0  0  0  0 
  2  3  1  0  0  0  0 
  3  4  1  0  0  0  0 
  4  5  1  0  0  0  0 
  5  6  1  0  0  0  0 
  6  7  1  0  0  0  0 
  7  8  1  0  0  0  0 
  8  9  1  0  0  0  0 
  9 10  1  0  0  0  0 
 10 11  1  0  0  0  0 
 11 12  1  0  0  0  0 
 12 13  1  0  0  0  0 
 13 14  1  0  0  0  0 
 14 15  1  0  0  0  0 
 15 16  1  0  0  0  0 
 16 17  1  0  0  0  0 
 17 18  1  0  0  0  0 
 18 19  1  0  0  0  0 
 19 20  1  0  0  0  0 
 20 21  1  0  0  0  0 
 22 21  1  6  0  0  0 
 22 23  1  1  0  0  0 
 22 24  2  0  0  0  0 
 22 25  1  0  0  0  0 
 25 26  1  0  0  0  0 
 26 27  1  0  0  0  0 
 27 28  1  0  0  0  0 
 28 29  1  0  0  0  0 
 28 30  1  0  0  0  0 
 28 31  1  0  0  0  0 
 19 32  1  1  0  0  0 
 32 33  1  0  0  0  0 
 33 34  1  0  0  0  0 
 33 35  2  0  0  0  0 
M  CHG  1  23  -1
M  CHG  1  28   1
M  END
> <SMILES>
CCCCCCCCCCCCCCCCOC[C@H](CO[P@@]([O-])(=O)OCC[N+](C)(C)C)OC(C)=O

$$$$

  CDK     06141809482D

 33 35  0  0  1  0  0  0  0  0999 V2000
   -3.3520   -0.6827    0.0000 H   0  0  0  0  0  0  0  0  0  0  0  0
   -2.6027    0.6167    0.0000 C   0  0  1  0  0  0  0  0  0  0  0  0
   -3.5668    1.7659    0.0000 O   0  0  0  0  0  0  0  0  0  0  0  0
   -3.9027   -0.1333    0.0000 C   0  0  0  0  0  0  0  0  0  0  0  0
   -3.9027   -1.6333    0.0000 C   0  0  0  0  0  0  0  0  0  0  0  0
   -2.6027   -2.3833    0.0000 C   0  0  0  0  0  0  0  0  0  0  0  0
   -3.5668   -3.5325    0.0000 C   0  0  0  0  0  0  0  0  0  0  0  0
   -1.8529   -3.6824    0.0000 C   0  0  0  0  0  0  0  0  0  0  0  0
   -1.3027   -1.6333    0.0000 C   0  0  2  0  0  0  0  0  0  0  0  0
   -2.6050   -0.8890    0.0000 H   0  0  0  0  0  0  0  0  0  0  0  0
   -0.0127   -2.3833    0.0000 C   0  0  2  0  0  0  0  0  0  0  0  0
   -0.9793   -3.5303    0.0000 H   0  0  0  0  0  0  0  0  0  0  0  0
    0.9501   -3.5335    0.0000 O   0  0  0  0  0  0  0  0  0  0  0  0
    1.2873   -1.6333    0.0000 C   0  0  2  0  0  0  0  0  0  0  0  0
    1.8000   -3.0429    0.0000 H   0  0  0  0  0  0  0  0  0  0  0  0
    3.2372   -1.2897    0.0000 O   0  0  0  0  0  0  0  0  0  0  0  0
    4.2013   -2.4389    0.0000 C   0  0  0  0  0  0  0  0  0  0  0  0
    5.6785   -2.1785    0.0000 C   0  0  0  0  0  0  0  0  0  0  0  0
    3.6881   -3.8483    0.0000 O   0  0  0  0  0  0  0  0  0  0  0  0
    1.2873   -0.1333    0.0000 C   0  0  1  0  0  0  0  0  0  0  0  0
    2.5862   -0.8835    0.0000 C   0  0  0  0  0  0  0  0  0  0  0  0
    2.5873    0.6167    0.0000 O   0  0  0  0  0  0  0  0  0  0  0  0
    2.5873    2.1167    0.0000 C   0  0  2  0  0  0  0  0  0  0  0  0
    4.0645    1.8564    0.0000 C   0  0  0  0  0  0  0  0  0  0  0  0
    1.2873    2.8667    0.0000 C   0  0  0  0  0  0  0  0  0  0  0  0
   -0.0127    2.1167    0.0000 C   0  0  0  0  0  0  0  0  0  0  0  0
   -1.3116    2.8669    0.0000 O   0  0  0  0  0  0  0  0  0  0  0  0
   -0.0127    0.6167    0.0000 C   0  0  1  0  0  0  0  0  0  0  0  0
   -1.3129    1.3647    0.0000 O   0  0  0  0  0  0  0  0  0  0  0  0
   -1.3027   -0.1333    0.0000 C   0  0  1  0  0  0  0  0  0  0  0  0
   -0.0004   -0.8776    0.0000 C   0  0  0  0  0  0  0  0  0  0  0  0
    3.1000    3.5263    0.0000 C   0  0  0  0  0  0  0  0  0  0  0  0
    4.5772    3.7871    0.0000 C   0  0  0  0  0  0  0  0  0  0  0  0
  2  1  1  1  0  0  0 
  2  3  1  0  0  0  0 
  2  4  1  6  0  0  0 
  4  5  1  0  0  0  0 
  5  6  1  0  0  0  0 
  6  7  1  0  0  0  0 
  6  8  1  0  0  0  0 
  6  9  1  0  0  0  0 
  9 10  1  6  0  0  0 
  9 11  1  0  0  0  0 
 11 12  1  6  0  0  0 
 11 13  1  1  0  0  0 
 11 14  1  0  0  0  0 
 14 15  1  6  0  0  0 
 14 16  1  1  0  0  0 
 16 17  1  0  0  0  0 
 17 18  1  0  0  0  0 
 17 19  2  0  0  0  0 
 14 20  1  0  0  0  0 
 20 21  1  1  0  0  0 
 20 22  1  0  0  0  0 
 22 23  1  0  0  0  0 
 23 24  1  1  0  0  0 
 23 25  1  0  0  0  0 
 25 26  1  0  0  0  0 
 26 27  2  0  0  0  0 
 26 28  1  0  0  0  0 
 20 28  1  0  0  0  0 
 28 29  1  6  0  0  0 
 28 30  1  0  0  0  0 
  2 30  1  0  0  0  0 
  9 30  1  0  0  0  0 
 30 31  1  1  0  0  0 
 23 32  1  6  0  0  0 
 32 33  2  0  0  0  0 
M  END
> <SMILES>
[H][C@]1(O)CCC(C)(C)[C@]2([H])[C@]([H])(O)[C@]([H])(OC(C)=O)[C@@]3(C)O[C@](C)(CC(=O)[C@]3(O)[C@@]12C)C=C

$$$$

  CDK     06141809482D

 38 41  0  0  1  0  0  0  0  0999 V2000
    5.3613    1.4184    0.0000 H   0  0  0  0  0  0  0  0  0  0  0  0
    4.8499    2.8285    0.0000 C   0  0  2  0  0  0  0  0  0  0  0  0
    6.3274    3.0873    0.0000 C   0  0  0  0  0  0  0  0  0  0  0  0
    4.8516    4.3285    0.0000 C   0  0  0  0  0  0  0  0  0  0  0  0
    6.1515    5.0770    0.0000 C   0  0  0  0  0  0  0  0  0  0  0  0
    6.1533    6.5770    0.0000 C   0  0  0  0  0  0  0  0  0  0  0  0
    7.4532    7.3255    0.0000 O   0  0  0  0  0  0  0  0  0  0  0  0
    4.8551    7.3285    0.0000 O   0  0  0  0  0  0  0  0  0  0  0  0
    3.5500    2.0800    0.0000 C   0  0  1  0  0  0  0  0  0  0  0  0
    3.3497    0.5934    0.0000 H   0  0  0  0  0  0  0  0  0  0  0  0
    4.4300    0.8600    0.0000 C   0  0  0  0  0  0  0  0  0  0  0  0
    3.5500   -0.3500    0.0000 C   0  0  0  0  0  0  0  0  0  0  0  0
    2.1200    0.1100    0.0000 C   0  0  1  0  0  0  0  0  0  0  0  0
    2.2812   -1.3813    0.0000 H   0  0  0  0  0  0  0  0  0  0  0  0
    0.8300   -0.6400    0.0000 C   0  0  2  0  0  0  0  0  0  0  0  0
    1.0873    0.8378    0.0000 H   0  0  0  0  0  0  0  0  0  0  0  0
    0.8300   -2.1400    0.0000 C   0  0  2  0  0  0  0  0  0  0  0  0
    1.3427   -3.5496    0.0000 H   0  0  0  0  0  0  0  0  0  0  0  0
    2.3300   -2.1402    0.0000 O   0  0  0  0  0  0  0  0  0  0  0  0
   -0.4700   -2.8900    0.0000 C   0  0  0  0  0  0  0  0  0  0  0  0
   -1.7700   -2.1400    0.0000 C   0  0  2  0  0  0  0  0  0  0  0  0
   -1.7700   -3.6400    0.0000 H   0  0  0  0  0  0  0  0  0  0  0  0
   -3.0700   -2.8900    0.0000 C   0  0  0  0  0  0  0  0  0  0  0  0
   -4.3700   -2.1400    0.0000 C   0  0  2  0  0  0  0  0  0  0  0  0
   -5.8472   -1.8797    0.0000 H   0  0  0  0  0  0  0  0  0  0  0  0
   -4.8827   -3.5496    0.0000 O   0  0  0  0  0  0  0  0  0  0  0  0
   -4.3700   -0.6400    0.0000 C   0  0  0  0  0  0  0  0  0  0  0  0
   -3.0700    0.1100    0.0000 C   0  0  0  0  0  0  0  0  0  0  0  0
   -1.7700   -0.6400    0.0000 C   0  0  1  0  0  0  0  0  0  0  0  0
   -1.7700    0.8600    0.0000 C   0  0  0  0  0  0  0  0  0  0  0  0
   -0.4700    0.1100    0.0000 C   0  0  1  0  0  0  0  0  0  0  0  0
   -0.4707   -1.3900    0.0000 H   0  0  0  0  0  0  0  0  0  0  0  0
   -0.4700    1.6100    0.0000 C   0  0  0  0  0  0  0  0  0  0  0  0
    0.8300    2.3600    0.0000 C   0  0  2  0  0  0  0  0  0  0  0  0
    0.3114    0.9525    0.0000 H   0  0  0  0  0  0  0  0  0  0  0  0
   -0.1328    3.5102    0.0000 O   0  0  0  0  0  0  0  0  0  0  0  0
    2.1200    1.6100    0.0000 C   0  0  2  0  0  0  0  0  0  0  0  0
    2.2765    3.1018    0.0000 C   0  0  0  0  0  0  0  0  0  0  0  0
  2  1  1  6  0  0  0 
  2  3  1  1  0  0  0 
  2  4  1  0  0  0  0 
  4  5  1  0  0  0  0 
  5  6  1  0  0  0  0 
  6  7  1  0  0  0  0 
  6  8  2  0  0  0  0 
  2  9  1  0  0  0  0 
  9 10  1  6  0  0  0 
  9 11  1  1  0  0  0 
 11 12  1  0  0  0  0 
 12 13  1  0  0  0  0 
 13 14  1  6  0  0  0 
 13 15  1  0  0  0  0 
 15 16  1  1  0  0  0 
 15 17  1  0  0  0  0 
 17 18  1  1  0  0  0 
 17 19  1  6  0  0  0 
 17 20  1  0  0  0  0 
 20 21  1  0  0  0  0 
 21 22  1  1  0  0  0 
 21 23  1  0  0  0  0 
 23 24  1  0  0  0  0 
 24 25  1  1  0  0  0 
 24 26  1  6  0  0  0 
 24 27  1  0  0  0  0 
 27 28  1  0  0  0  0 
 28 29  1  0  0  0  0 
 21 29  1  0  0  0  0 
 29 30  1  1  0  0  0 
 29 31  1  0  0  0  0 
 15 31  1  0  0  0  0 
 31 32  1  6  0  0  0 
 31 33  1  0  0  0  0 
 34 33  1  6  0  0  0 
 34 35  1  1  0  0  0 
 34 36  1  0  0  0  0 
 34 37  1  0  0  0  0 
  9 37  1  0  0  0  0 
 13 37  1  0  0  0  0 
 37 38  1  1  0  0  0 
M  END
> <SMILES>
[H][C@@](C)(CCC(O)=O)[C@@]1([H])CC[C@@]2([H])[C@]3([H])[C@]([H])(O)C[C@]4([H])C[C@]([H])(O)CC[C@]4(C)[C@@]3([H])C[C@]([H])(O)[C@]12C

$$$$

  CDK     06141809482D

 25 28  0  0  1  0  0  0  0  0999 V2000
    1.0573    1.0428    0.0000 H   0  0  0  0  0  0  0  0  0  0  0  0
    2.2700    0.1600    0.0000 C   0  0  2  0  0  0  0  0  0  0  0  0
    3.6900   -0.3000    0.0000 C   0  0  0  0  0  0  0  0  0  0  0  0
    4.5700    0.9100    0.0000 C   0  0  0  0  0  0  0  0  0  0  0  0
    3.6900    2.1200    0.0000 C   0  0  2  0  0  0  0  0  0  0  0  0
    4.1538    3.5465    0.0000 O   0  0  0  0  0  0  0  0  0  0  0  0
    2.2700    1.6600    0.0000 C   0  0  2  0  0  0  0  0  0  0  0  0
    2.4272    3.1517    0.0000 C   0  0  0  0  0  0  0  0  0  0  0  0
    0.9700    2.4100    0.0000 C   0  0  0  0  0  0  0  0  0  0  0  0
   -0.3300    1.6600    0.0000 C   0  0  0  0  0  0  0  0  0  0  0  0
   -0.3300    0.1600    0.0000 C   0  0  1  0  0  0  0  0  0  0  0  0
   -0.3307   -1.3400    0.0000 H   0  0  0  0  0  0  0  0  0  0  0  0
    0.9700   -0.5900    0.0000 C   0  0  1  0  0  0  0  0  0  0  0  0
    2.2689   -1.3402    0.0000 H   0  0  0  0  0  0  0  0  0  0  0  0
    0.9700   -2.0900    0.0000 C   0  0  0  0  0  0  0  0  0  0  0  0
   -0.3300   -2.8400    0.0000 C   0  0  0  0  0  0  0  0  0  0  0  0
   -1.6300   -2.0900    0.0000 C   0  0  1  0  0  0  0  0  0  0  0  0
   -1.6300   -3.5900    0.0000 H   0  0  0  0  0  0  0  0  0  0  0  0
   -2.9300   -2.8400    0.0000 C   0  0  0  0  0  0  0  0  0  0  0  0
   -4.2300   -2.0900    0.0000 C   0  0  0  0  0  0  0  0  0  0  0  0
   -5.5289   -2.8402    0.0000 O   0  0  0  0  0  0  0  0  0  0  0  0
   -4.2300   -0.5900    0.0000 C   0  0  0  0  0  0  0  0  0  0  0  0
   -2.9300    0.1600    0.0000 C   0  0  0  0  0  0  0  0  0  0  0  0
   -1.6300   -0.5900    0.0000 C   0  0  2  0  0  0  0  0  0  0  0  0
   -1.6300    0.9100    0.0000 C   0  0  0  0  0  0  0  0  0  0  0  0
  2  1  1  6  0  0  0 
  2  3  1  0  0  0  0 
  3  4  1  0  0  0  0 
  4  5  1  0  0  0  0 
  5  6  1  1  0  0  0 
  5  7  1  0  0  0  0 
  2  7  1  0  0  0  0 
  7  8  1  1  0  0  0 
  7  9  1  0  0  0  0 
  9 10  1  0  0  0  0 
 10 11  1  0  0  0  0 
 11 12  1  6  0  0  0 
 11 13  1  0  0  0  0 
  2 13  1  0  0  0  0 
 13 14  1  1  0  0  0 
 13 15  1  0  0  0  0 
 15 16  1  0  0  0  0 
 16 17  1  0  0  0  0 
 17 18  1  6  0  0  0 
 17 19  1  0  0  0  0 
 19 20  1  0  0  0  0 
 20 21  2  0  0  0  0 
 20 22  1  0  0  0  0 
 22 23  1  0  0  0  0 
 23 24  1  0  0  0  0 
 11 24  1  0  0  0  0 
 17 24  1  0  0  0  0 
 24 25  1  1  0  0  0 
M  END
> <SMILES>
[H][C@@]12CC[C@H](O)[C@@]1(C)CC[C@@]1([H])[C@@]2([H])CC[C@@]2([H])CC(=O)CC[C@]12C

$$$$

  CDK     06141809482D

 25 24  0  0  1  0  0  0  0  0999 V2000
   16.8875   -2.2500    0.0000 H   0  0  0  0  0  0  0  0  0  0  0  0
   16.8875   -0.7500    0.0000 C   0  0  0  0  0  0  0  0  0  0  0  0
   15.5885   -0.0000    0.0000 C   0  0  0  0  0  0  0  0  0  0  0  0
   14.2894   -0.7500    0.0000 C   0  0  0  0  0  0  0  0  0  0  0  0
   12.9904   -0.0000    0.0000 C   0  0  0  0  0  0  0  0  0  0  0  0
   11.6913   -0.7500    0.0000 C   0  0  0  0  0  0  0  0  0  0  0  0
   10.3923   -0.0000    0.0000 C   0  0  0  0  0  0  0  0  0  0  0  0
    9.0933   -0.7500    0.0000 C   0  0  0  0  0  0  0  0  0  0  0  0
    7.7942   -0.0000    0.0000 C   0  0  0  0  0  0  0  0  0  0  0  0
    6.4952   -0.7500    0.0000 C   0  0  0  0  0  0  0  0  0  0  0  0
    5.1962   -0.0000    0.0000 C   0  0  0  0  0  0  0  0  0  0  0  0
    3.8971   -0.7500    0.0000 C   0  0  0  0  0  0  0  0  0  0  0  0
    2.5981   -0.0000    0.0000 C   0  0  0  0  0  0  0  0  0  0  0  0
    1.2990   -0.7500    0.0000 C   0  0  0  0  0  0  0  0  0  0  0  0
    0.0000    0.0000    0.0000 C   0  0  0  0  0  0  0  0  0  0  0  0
   18.1865   -0.0000    0.0000 C   0  0  0  0  0  0  0  0  0  0  0  0
   18.1865    1.5000    0.0000 H   0  0  0  0  0  0  0  0  0  0  0  0
   19.4856   -0.7500    0.0000 C   0  0  1  0  0  0  0  0  0  0  0  0
   18.5214   -1.8991    0.0000 H   0  0  0  0  0  0  0  0  0  0  0  0
   20.4498   -1.8991    0.0000 O   0  0  0  0  0  0  0  0  0  0  0  0
   20.7846   -0.0000    0.0000 C   0  0  1  0  0  0  0  0  0  0  0  0
   21.7488    1.1491    0.0000 H   0  0  0  0  0  0  0  0  0  0  0  0
   19.8204    1.1491    0.0000 N   0  0  0  0  0  0  0  0  0  0  0  0
   22.0836   -0.7500    0.0000 C   0  0  0  0  0  0  0  0  0  0  0  0
   23.3827   -0.0000    0.0000 O   0  0  0  0  0  0  0  0  0  0  0  0
  1  2  1  4  0  0  0 
  2  3  1  0  0  0  0 
  3  4  1  0  0  0  0 
  4  5  1  0  0  0  0 
  5  6  1  0  0  0  0 
  6  7  1  0  0  0  0 
  7  8  1  0  0  0  0 
  8  9  1  0  0  0  0 
  9 10  1  0  0  0  0 
 10 11  1  0  0  0  0 
 11 12  1  0  0  0  0 
 12 13  1  0  0  0  0 
 13 14  1  0  0  0  0 
 14 15  1  0  0  0  0 
  2 16  2  0  0  0  0 
 16 17  1  0  0  0  0 
 16 18  1  0  0  0  0 
 18 19  1  1  0  0  0 
 18 20  1  6  0  0  0 
 18 21  1  0  0  0  0 
 21 22  1  6  0  0  0 
 21 23  1  1  0  0  0 
 21 24  1  0  0  0  0 
 24 25  1  0  0  0  0 
M  END
> <SMILES>
[H]C(CCCCCCCCCCCCC)=C([H])[C@@]([H])(O)[C@@]([H])(N)CO

$$$$

  CDK     06141809482D

 21 23  0  0  1  0  0  0  0  0999 V2000
    4.0772    0.4897    0.0000 H   0  0  0  0  0  0  0  0  0  0  0  0
    2.6000    0.7500    0.0000 C   0  0  2  0  0  0  0  0  0  0  0  0
    2.6000   -0.7500    0.0000 C   0  0  0  0  0  0  0  0  0  0  0  0
    1.3000   -1.5000    0.0000 C   0  0  0  0  0  0  0  0  0  0  0  0
    1.3000   -3.0000    0.0000 O   0  0  0  0  0  0  0  0  0  0  0  0
    0.0000   -0.7500    0.0000 C   0  0  0  0  0  0  0  0  0  0  0  0
    0.0000    0.7500    0.0000 C   0  0  0  0  0  0  0  0  0  0  0  0
    1.3000    1.5000    0.0000 O   0  0  0  0  0  0  0  0  0  0  0  0
   -1.3000    1.5000    0.0000 C   0  0  0  0  0  0  0  0  0  0  0  0
   -2.6000    0.7500    0.0000 C   0  0  0  0  0  0  0  0  0  0  0  0
   -3.8989    1.5002    0.0000 O   0  0  0  0  0  0  0  0  0  0  0  0
   -2.6000   -0.7500    0.0000 C   0  0  0  0  0  0  0  0  0  0  0  0
   -1.3000   -1.5000    0.0000 C   0  0  0  0  0  0  0  0  0  0  0  0
   -1.3000   -3.0000    0.0000 O   0  0  0  0  0  0  0  0  0  0  0  0
    3.1127    2.1596    0.0000 C   0  0  0  0  0  0  0  0  0  0  0  0
    2.1427    3.3037    0.0000 C   0  0  0  0  0  0  0  0  0  0  0  0
    2.6263    4.6971    0.0000 C   0  0  0  0  0  0  0  0  0  0  0  0
    4.1410    4.9981    0.0000 C   0  0  0  0  0  0  0  0  0  0  0  0
    4.6351    6.4144    0.0000 O   0  0  0  0  0  0  0  0  0  0  0  0
    5.1111    3.8540    0.0000 C   0  0  0  0  0  0  0  0  0  0  0  0
    4.5664    2.4089    0.0000 C   0  0  0  0  0  0  0  0  0  0  0  0
  2  1  1  1  0  0  0 
  2  3  1  0  0  0  0 
  3  4  1  0  0  0  0 
  4  5  2  0  0  0  0 
  4  6  1  0  0  0  0 
  6  7  2  0  0  0  0 
  7  8  1  0  0  0  0 
  2  8  1  0  0  0  0 
  7  9  1  0  0  0  0 
  9 10  2  0  0  0  0 
 10 11  1  0  0  0  0 
 10 12  1  0  0  0  0 
 12 13  2  0  0  0  0 
  6 13  1  0  0  0  0 
 13 14  1  0  0  0  0 
  2 15  1  6  0  0  0 
 15 16  2  0  0  0  0 
 16 17  1  0  0  0  0 
 17 18  2  0  0  0  0 
 18 19  1  0  0  0  0 
 18 20  1  0  0  0  0 
 20 21  2  0  0  0  0 
 15 21  1  0  0  0  0 
M  END
> <SMILES>
[H][C@]1(CC(=O)C2=C(O1)C=C(O)C=C2O)C1=CC=C(O)C=C1

$$$$

  CDK     06141809482D

 18 17  0  0  0  0  0  0  0  0999 V2000
    0.0000    0.0000    0.0000 C   0  0  0  0  0  0  0  0  0  0  0  0
    1.2990   -0.7500    0.0000 C   0  0  0  0  0  0  0  0  0  0  0  0
    2.5981   -0.0000    0.0000 C   0  0  0  0  0  0  0  0  0  0  0  0
    3.8971   -0.7500    0.0000 C   0  0  0  0  0  0  0  0  0  0  0  0
    5.1962   -0.0000    0.0000 C   0  0  0  0  0  0  0  0  0  0  0  0
    6.4952   -0.7500    0.0000 C   0  0  0  0  0  0  0  0  0  0  0  0
    7.7942   -0.0000    0.0000 C   0  0  0  0  0  0  0  0  0  0  0  0
    9.0933   -0.7500    0.0000 C   0  0  0  0  0  0  0  0  0  0  0  0
   10.3923   -0.0000    0.0000 C   0  0  0  0  0  0  0  0  0  0  0  0
   11.6913   -0.7500    0.0000 C   0  0  0  0  0  0  0  0  0  0  0  0
   12.9904   -0.0000    0.0000 C   0  0  0  0  0  0  0  0  0  0  0  0
   14.2894   -0.7500    0.0000 C   0  0  0  0  0  0  0  0  0  0  0  0
   15.5885   -0.0000    0.0000 C   0  0  0  0  0  0  0  0  0  0  0  0
   16.8875   -0.7500    0.0000 C   0  0  0  0  0  0  0  0  0  0  0  0
   18.1865   -0.0000    0.0000 C   0  0  0  0  0  0  0  0  0  0  0  0
   19.4856   -0.7500    0.0000 C   0  0  0  0  0  0  0  0  0  0  0  0
   20.7846   -0.0000    0.0000 O   0  0  0  0  0  0  0  0  0  0  0  0
   19.4856   -2.2500    0.0000 O   0  0  0  0  0  0  0  0  0  0  0  0
  1  2  1  0  0  0  0 
  2  3  1  0  0  0  0 
  3  4  1  0  0  0  0 
  4  5  1  0  0  0  0 
  5  6  1  0  0  0  0 
  6  7  1  0  0  0  0 
  7  8  1  0  0  0  0 
  8  9  1  0  0  0  0 
  9 10  1  0  0  0  0 
 10 11  1  0  0  0  0 
 11 12  1  0  0  0  0 
 12 13  1  0  0  0  0 
 13 14  1  0  0  0  0 
 14 15  1  0  0  0  0 
 15 16  1  0  0  0  0 
 16 17  1  0  0  0  0 
 16 18  2  0  0  0  0 
M  END
> <SMILES>
CCCCCCCCCCCCCCCC(O)=O

$$$$

  CDK     06141809482D

 22 24  0  0  0  0  0  0  0  0999 V2000
   -3.8989    1.5002    0.0000 O   0  0  0  0  0  0  0  0  0  0  0  0
   -2.6000    0.7500    0.0000 C   0  0  0  0  0  0  0  0  0  0  0  0
   -1.3000    1.5000    0.0000 C   0  0  0  0  0  0  0  0  0  0  0  0
    0.0000    0.7500    0.0000 C   0  0  0  0  0  0  0  0  0  0  0  0
    0.0000   -0.7500    0.0000 C   0  0  0  0  0  0  0  0  0  0  0  0
   -1.3000   -1.5000    0.0000 C   0  0  0  0  0  0  0  0  0  0  0  0
   -1.3000   -3.0000    0.0000 O   0  0  0  0  0  0  0  0  0  0  0  0
   -2.6000   -0.7500    0.0000 C   0  0  0  0  0  0  0  0  0  0  0  0
    1.3000   -1.5000    0.0000 C   0  0  0  0  0  0  0  0  0  0  0  0
    1.3000   -3.0000    0.0000 O   0  0  0  0  0  0  0  0  0  0  0  0
    2.6000   -0.7500    0.0000 C   0  0  0  0  0  0  0  0  0  0  0  0
    3.8989   -1.5002    0.0000 O   0  0  0  0  0  0  0  0  0  0  0  0
    2.6000    0.7500    0.0000 C   0  0  0  0  0  0  0  0  0  0  0  0
    1.3000    1.5000    0.0000 O   0  0  0  0  0  0  0  0  0  0  0  0
    3.8989    1.5002    0.0000 C   0  0  0  0  0  0  0  0  0  0  0  0
    5.1986    0.7496    0.0000 C   0  0  0  0  0  0  0  0  0  0  0  0
    6.4975    1.4998    0.0000 C   0  0  0  0  0  0  0  0  0  0  0  0
    6.4968    3.0006    0.0000 C   0  0  0  0  0  0  0  0  0  0  0  0
    7.7957    3.7508    0.0000 O   0  0  0  0  0  0  0  0  0  0  0  0
    5.1971    3.7512    0.0000 C   0  0  0  0  0  0  0  0  0  0  0  0
    5.1971    5.2512    0.0000 O   0  0  0  0  0  0  0  0  0  0  0  0
    3.8982    3.0010    0.0000 C   0  0  0  0  0  0  0  0  0  0  0  0
  1  2  1  0  0  0  0 
  2  3  2  0  0  0  0 
  3  4  1  0  0  0  0 
  4  5  2  0  0  0  0 
  5  6  1  0  0  0  0 
  6  7  1  0  0  0  0 
  6  8  2  0  0  0  0 
  2  8  1  0  0  0  0 
  5  9  1  0  0  0  0 
  9 10  2  0  0  0  0 
  9 11  1  0  0  0  0 
 11 12  1  0  0  0  0 
 11 13  2  0  0  0  0 
 13 14  1  0  0  0  0 
  4 14  1  0  0  0  0 
 13 15  1  0  0  0  0 
 15 16  2  0  0  0  0 
 16 17  1  0  0  0  0 
 17 18  2  0  0  0  0 
 18 19  1  0  0  0  0 
 18 20  1  0  0  0  0 
 20 21  1  0  0  0  0 
 20 22  2  0  0  0  0 
 15 22  1  0  0  0  0 
M  END
> <SMILES>
OC1=CC2=C(C(O)=C1)C(=O)C(O)=C(O2)C1=CC=C(O)C(O)=C1

$$$$

  CDK     06141809482D

 10 10  0  0  0  0  0  0  0  0999 V2000
   -3.8981   -3.0002    0.0000 O   0  0  0  0  0  0  0  0  0  0  0  0
   -2.5992   -2.2500    0.0000 C   0  0  0  0  0  0  0  0  0  0  0  0
   -1.2992   -3.0000    0.0000 C   0  0  0  0  0  0  0  0  0  0  0  0
    0.0008   -2.2500    0.0000 C   0  0  0  0  0  0  0  0  0  0  0  0
    0.0008   -0.7500    0.0000 C   0  0  0  0  0  0  0  0  0  0  0  0
   -1.2992    0.0000    0.0000 C   0  0  0  0  0  0  0  0  0  0  0  0
   -2.5992   -0.7500    0.0000 C   0  0  0  0  0  0  0  0  0  0  0  0
    1.2998    0.0002    0.0000 N   0  0  0  0  0  0  0  0  0  0  0  0
    2.5989   -0.7496    0.0000 O   0  0  0  0  0  0  0  0  0  0  0  0
    1.2995    1.5002    0.0000 O   0  0  0  0  0  0  0  0  0  0  0  0
  1  2  1  0  0  0  0 
  2  3  2  0  0  0  0 
  3  4  1  0  0  0  0 
  4  5  2  0  0  0  0 
  5  6  1  0  0  0  0 
  6  7  2  0  0  0  0 
  2  7  1  0  0  0  0 
  5  8  1  0  0  0  0 
  8  9  1  0  0  0  0 
  8 10  2  0  0  0  0 
M  CHG  1   8   1
M  CHG  1   9  -1
M  END
> <SMILES>
OC1=CC=C(C=C1)[N+]([O-])=O

$$$$

  CDK     06141809482D

 34 37  0  0  1  0  0  0  0  0999 V2000
    5.5118    1.4028    0.0000 H   0  0  0  0  0  0  0  0  0  0  0  0
    5.0204    2.8200    0.0000 C   0  0  2  0  0  0  0  0  0  0  0  0
    6.5014    3.0579    0.0000 C   0  0  0  0  0  0  0  0  0  0  0  0
    5.0433    4.3199    0.0000 C   0  0  0  0  0  0  0  0  0  0  0  0
    6.3537    5.0499    0.0000 C   0  0  0  0  0  0  0  0  0  0  0  0
    6.3766    6.5497    0.0000 C   0  0  0  0  0  0  0  0  0  0  0  0
    7.6870    7.2798    0.0000 C   0  0  0  0  0  0  0  0  0  0  0  0
    7.7099    8.7796    0.0000 C   0  0  0  0  0  0  0  0  0  0  0  0
    8.9744    6.5100    0.0000 C   0  0  0  0  0  0  0  0  0  0  0  0
    3.7100    2.0900    0.0000 C   0  0  1  0  0  0  0  0  0  0  0  0
    3.7672    0.5911    0.0000 H   0  0  0  0  0  0  0  0  0  0  0  0
    4.5500    0.8800    0.0000 C   0  0  0  0  0  0  0  0  0  0  0  0
    3.7100   -0.3100    0.0000 C   0  0  0  0  0  0  0  0  0  0  0  0
    2.2800    0.1600    0.0000 C   0  0  1  0  0  0  0  0  0  0  0  0
    1.0754    1.0539    0.0000 H   0  0  0  0  0  0  0  0  0  0  0  0
    1.0100   -0.5600    0.0000 C   0  0  2  0  0  0  0  0  0  0  0  0
    2.3061   -1.3151    0.0000 H   0  0  0  0  0  0  0  0  0  0  0  0
    1.0100   -2.0900    0.0000 C   0  0  0  0  0  0  0  0  0  0  0  0
   -0.3200   -2.8400    0.0000 C   0  0  0  0  0  0  0  0  0  0  0  0
   -1.6200   -2.0900    0.0000 C   0  0  0  0  0  0  0  0  0  0  0  0
   -2.8900   -2.8400    0.0000 C   0  0  0  0  0  0  0  0  0  0  0  0
   -4.2000   -2.0900    0.0000 C   0  0  1  0  0  0  0  0  0  0  0  0
   -5.6775   -1.8313    0.0000 H   0  0  0  0  0  0  0  0  0  0  0  0
   -4.7096   -3.5008    0.0000 O   0  0  0  0  0  0  0  0  0  0  0  0
   -4.2000   -0.5600    0.0000 C   0  0  0  0  0  0  0  0  0  0  0  0
   -2.8900    0.1600    0.0000 C   0  0  0  0  0  0  0  0  0  0  0  0
   -1.6200   -0.5600    0.0000 C   0  0  1  0  0  0  0  0  0  0  0  0
   -1.6125    0.9400    0.0000 C   0  0  0  0  0  0  0  0  0  0  0  0
   -0.3200    0.1600    0.0000 C   0  0  1  0  0  0  0  0  0  0  0  0
   -0.3601   -1.3395    0.0000 H   0  0  0  0  0  0  0  0  0  0  0  0
   -0.3200    1.6300    0.0000 C   0  0  0  0  0  0  0  0  0  0  0  0
    1.0100    2.3900    0.0000 C   0  0  0  0  0  0  0  0  0  0  0  0
    2.2800    1.6300    0.0000 C   0  0  2  0  0  0  0  0  0  0  0  0
    2.4507    3.1203    0.0000 C   0  0  0  0  0  0  0  0  0  0  0  0
  2  1  1  6  0  0  0 
  2  3  1  1  0  0  0 
  2  4  1  0  0  0  0 
  4  5  1  0  0  0  0 
  5  6  1  0  0  0  0 
  6  7  1  0  0  0  0 
  7  8  1  0  0  0  0 
  7  9  1  0  0  0  0 
  2 10  1  0  0  0  0 
 10 11  1  6  0  0  0 
 10 12  1  1  0  0  0 
 12 13  1  0  0  0  0 
 13 14  1  0  0  0  0 
 14 15  1  6  0  0  0 
 14 16  1  0  0  0  0 
 16 17  1  1  0  0  0 
 16 18  1  0  0  0  0 
 18 19  1  0  0  0  0 
 19 20  2  0  0  0  0 
 20 21  1  0  0  0  0 
 21 22  1  0  0  0  0 
 22 23  1  6  0  0  0 
 22 24  1  1  0  0  0 
 22 25  1  0  0  0  0 
 25 26  1  0  0  0  0 
 26 27  1  0  0  0  0 
 20 27  1  0  0  0  0 
 27 28  1  1  0  0  0 
 27 29  1  0  0  0  0 
 16 29  1  0  0  0  0 
 29 30  1  6  0  0  0 
 29 31  1  0  0  0  0 
 31 32  1  0  0  0  0 
 32 33  1  0  0  0  0 
 10 33  1  0  0  0  0 
 14 33  1  0  0  0  0 
 33 34  1  1  0  0  0 
M  END
> <SMILES>
[H][C@@](C)(CCCC(C)C)[C@@]1([H])CC[C@@]2([H])[C@]3([H])CC=C4C[C@@]([H])(O)CC[C@]4(C)[C@@]3([H])CC[C@]12C

$$$$

  CDK     06141809482D

 24 27  0  0  1  0  0  0  0  0999 V2000
    0.6873    1.0428    0.0000 H   0  0  0  0  0  0  0  0  0  0  0  0
    1.9000    0.1600    0.0000 C   0  0  2  0  0  0  0  0  0  0  0  0
    3.3200   -0.3000    0.0000 C   0  0  0  0  0  0  0  0  0  0  0  0
    4.2000    0.9100    0.0000 C   0  0  1  0  0  0  0  0  0  0  0  0
    5.7000    0.9100    0.0000 O   0  0  0  0  0  0  0  0  0  0  0  0
    3.3200    2.1200    0.0000 C   0  0  2  0  0  0  0  0  0  0  0  0
    3.7838    3.5465    0.0000 O   0  0  0  0  0  0  0  0  0  0  0  0
    1.9000    1.6600    0.0000 C   0  0  2  0  0  0  0  0  0  0  0  0
    2.0572    3.1517    0.0000 C   0  0  0  0  0  0  0  0  0  0  0  0
    0.6000    2.4100    0.0000 C   0  0  0  0  0  0  0  0  0  0  0  0
   -0.7000    1.6600    0.0000 C   0  0  0  0  0  0  0  0  0  0  0  0
   -0.7000    0.1600    0.0000 C   0  0  2  0  0  0  0  0  0  0  0  0
   -1.9989    0.9102    0.0000 H   0  0  0  0  0  0  0  0  0  0  0  0
   -2.0000   -0.5900    0.0000 C   0  0  0  0  0  0  0  0  0  0  0  0
   -2.0000   -2.0900    0.0000 C   0  0  0  0  0  0  0  0  0  0  0  0
   -0.7000   -2.8400    0.0000 C   0  0  0  0  0  0  0  0  0  0  0  0
    0.6000   -2.0900    0.0000 C   0  0  0  0  0  0  0  0  0  0  0  0
    0.6000   -0.5900    0.0000 C   0  0  1  0  0  0  0  0  0  0  0  0
    1.8989   -1.3402    0.0000 H   0  0  0  0  0  0  0  0  0  0  0  0
   -3.3000   -2.8400    0.0000 C   0  0  0  0  0  0  0  0  0  0  0  0
   -4.6000   -2.0900    0.0000 C   0  0  0  0  0  0  0  0  0  0  0  0
   -5.8989   -2.8402    0.0000 O   0  0  0  0  0  0  0  0  0  0  0  0
   -4.6000   -0.5900    0.0000 C   0  0  0  0  0  0  0  0  0  0  0  0
   -3.3000    0.1600    0.0000 C   0  0  0  0  0  0  0  0  0  0  0  0
  2  1  1  6  0  0  0 
  2  3  1  0  0  0  0 
  3  4  1  0  0  0  0 
  4  5  1  6  0  0  0 
  4  6  1  0  0  0  0 
  6  7  1  1  0  0  0 
  6  8  1  0  0  0  0 
  2  8  1  0  0  0  0 
  8  9  1  1  0  0  0 
  8 10  1  0  0  0  0 
 10 11  1  0  0  0  0 
 11 12  1  0  0  0  0 
 12 13  1  6  0  0  0 
 12 14  1  0  0  0  0 
 14 15  2  0  0  0  0 
 15 16  1  0  0  0  0 
 16 17  1  0  0  0  0 
 17 18  1  0  0  0  0 
  2 18  1  0  0  0  0 
 12 18  1  0  0  0  0 
 18 19  1  1  0  0  0 
 15 20  1  0  0  0  0 
 20 21  2  0  0  0  0 
 21 22  1  0  0  0  0 
 21 23  1  0  0  0  0 
 23 24  2  0  0  0  0 
 14 24  1  0  0  0  0 
M  END
> <SMILES>
[H][C@@]12C[C@@H](O)[C@H](O)[C@@]1(C)CC[C@]1([H])C3=C(CC[C@@]21[H])C=C(O)C=C3

$$$$

  CDK     06141809482D

 31 34  0  0  1  0  0  0  0  0999 V2000
    5.6638    1.4500    0.0000 H   0  0  0  0  0  0  0  0  0  0  0  0
    4.3675    0.6953    0.0000 C   0  0  1  0  0  0  0  0  0  0  0  0
    5.2575   -0.5147    0.0000 C   0  0  0  0  0  0  0  0  0  0  0  0
    4.3675   -1.7347    0.0000 C   0  0  0  0  0  0  0  0  0  0  0  0
    2.9475   -1.2647    0.0000 C   0  0  1  0  0  0  0  0  0  0  0  0
    1.7320   -0.3858    0.0000 H   0  0  0  0  0  0  0  0  0  0  0  0
    1.6475   -2.0147    0.0000 C   0  0  2  0  0  0  0  0  0  0  0  0
    2.9464   -2.7649    0.0000 H   0  0  0  0  0  0  0  0  0  0  0  0
    1.6475   -3.5147    0.0000 C   0  0  0  0  0  0  0  0  0  0  0  0
    0.3475   -4.2647    0.0000 C   0  0  0  0  0  0  0  0  0  0  0  0
   -0.9525   -3.5147    0.0000 C   0  0  0  0  0  0  0  0  0  0  0  0
   -2.2525   -4.2647    0.0000 C   0  0  0  0  0  0  0  0  0  0  0  0
   -3.5525   -3.5147    0.0000 C   0  0  0  0  0  0  0  0  0  0  0  0
   -4.8514   -4.2649    0.0000 O   0  0  0  0  0  0  0  0  0  0  0  0
   -3.5525   -2.0147    0.0000 C   0  0  0  0  0  0  0  0  0  0  0  0
   -2.2525   -1.2647    0.0000 C   0  0  0  0  0  0  0  0  0  0  0  0
   -0.9525   -2.0147    0.0000 C   0  0  1  0  0  0  0  0  0  0  0  0
   -0.9525   -0.5147    0.0000 C   0  0  0  0  0  0  0  0  0  0  0  0
    0.3475   -1.2647    0.0000 C   0  0  1  0  0  0  0  0  0  0  0  0
    0.3468   -2.7647    0.0000 H   0  0  0  0  0  0  0  0  0  0  0  0
    0.3475    0.2353    0.0000 C   0  0  1  0  0  0  0  0  0  0  0  0
   -0.1652    1.6449    0.0000 H   0  0  0  0  0  0  0  0  0  0  0  0
   -1.1525    0.2355    0.0000 O   0  0  0  0  0  0  0  0  0  0  0  0
    1.6475    0.9853    0.0000 C   0  0  0  0  0  0  0  0  0  0  0  0
    2.9475    0.2353    0.0000 C   0  0  2  0  0  0  0  0  0  0  0  0
    3.1047    1.7270    0.0000 C   0  0  0  0  0  0  0  0  0  0  0  0
    4.4752    2.3368    0.0000 O   0  0  0  0  0  0  0  0  0  0  0  0
    4.6708    3.6196    0.0000 C   0  0  0  0  0  0  0  0  0  0  0  0
    3.4561    4.4996    0.0000 O   0  0  0  0  0  0  0  0  0  0  0  0
    6.0403    4.2316    0.0000 C   0  0  0  0  0  0  0  0  0  0  0  0
    7.2550    3.3516    0.0000 O   0  0  0  0  0  0  0  0  0  0  0  0
  2  1  1  6  0  0  0 
  2  3  1  0  0  0  0 
  3  4  1  0  0  0  0 
  4  5  1  0  0  0  0 
  5  6  1  6  0  0  0 
  5  7  1  0  0  0  0 
  7  8  1  1  0  0  0 
  7  9  1  0  0  0  0 
  9 10  1  0  0  0  0 
 10 11  1  0  0  0  0 
 11 12  2  0  0  0  0 
 12 13  1  0  0  0  0 
 13 14  2  0  0  0  0 
 13 15  1  0  0  0  0 
 15 16  1  0  0  0  0 
 16 17  1  0  0  0  0 
 11 17  1  0  0  0  0 
 17 18  1  1  0  0  0 
 17 19  1  0  0  0  0 
  7 19  1  0  0  0  0 
 19 20  1  6  0  0  0 
 19 21  1  0  0  0  0 
 21 22  1  6  0  0  0 
 21 23  1  1  0  0  0 
 21 24  1  0  0  0  0 
 24 25  1  0  0  0  0 
  2 25  1  0  0  0  0 
  5 25  1  0  0  0  0 
 25 26  1  1  0  0  0 
 26 27  2  0  0  0  0 
  2 28  1  1  0  0  0 
 28 29  2  0  0  0  0 
 28 30  1  0  0  0  0 
 30 31  1  0  0  0  0 
M  END
> <SMILES>
[H][C@@]1(CC[C@@]2([H])[C@]3([H])CCC4=CC(=O)CC[C@]4(C)[C@@]3([H])[C@@]([H])(O)C[C@]12C=O)C(=O)CO

$$$$

  CDK     06141809482D

 26 30  0  0  1  0  0  0  0  0999 V2000
    1.5498   -4.9534    0.0000 C   0  0  0  0  0  0  0  0  0  0  0  0
    1.9643   -3.5118    0.0000 C   0  0  0  0  0  0  0  0  0  0  0  0
    3.4200   -3.1500    0.0000 C   0  0  1  0  0  0  0  0  0  0  0  0
    3.5224   -4.6465    0.0000 O   0  0  0  0  0  0  0  0  0  0  0  0
    4.9100   -3.3100    0.0000 C   0  0  0  0  0  0  0  0  0  0  0  0
    5.5182   -4.6811    0.0000 O   0  0  0  0  0  0  0  0  0  0  0  0
    5.7900   -2.1000    0.0000 O   0  0  0  0  0  0  0  0  0  0  0  0
    5.1800   -0.7300    0.0000 C   0  0  0  0  0  0  0  0  0  0  0  0
    3.6900   -0.5700    0.0000 C   0  0  0  0  0  0  0  0  0  0  0  0
    2.8100   -1.7800    0.0000 C   0  0  0  0  0  0  0  0  0  0  0  0
    1.3200   -1.6200    0.0000 C   0  0  0  0  0  0  0  0  0  0  0  0
    0.7100   -0.2600    0.0000 C   0  0  0  0  0  0  0  0  0  0  0  0
    1.5900    0.9600    0.0000 N   0  0  0  0  0  0  0  0  0  0  0  0
    0.7100    2.1700    0.0000 C   0  0  0  0  0  0  0  0  0  0  0  0
   -0.7200    1.7100    0.0000 C   0  0  0  0  0  0  0  0  0  0  0  0
   -2.0200    2.4600    0.0000 C   0  0  0  0  0  0  0  0  0  0  0  0
   -3.3200    1.7100    0.0000 C   0  0  0  0  0  0  0  0  0  0  0  0
   -4.6200    2.4600    0.0000 C   0  0  0  0  0  0  0  0  0  0  0  0
   -5.9200    1.7100    0.0000 C   0  0  0  0  0  0  0  0  0  0  0  0
   -5.9200    0.2100    0.0000 C   0  0  0  0  0  0  0  0  0  0  0  0
   -4.6200   -0.5400    0.0000 C   0  0  0  0  0  0  0  0  0  0  0  0
   -3.3200    0.2100    0.0000 C   0  0  0  0  0  0  0  0  0  0  0  0
   -2.0200   -0.5400    0.0000 N   0  0  0  0  0  0  0  0  0  0  0  0
   -0.7200    0.2100    0.0000 C   0  0  0  0  0  0  0  0  0  0  0  0
    3.0800    0.8000    0.0000 C   0  0  0  0  0  0  0  0  0  0  0  0
    3.9630    2.0125    0.0000 O   0  0  0  0  0  0  0  0  0  0  0  0
  1  2  1  0  0  0  0 
  3  2  1  6  0  0  0 
  3  4  1  1  0  0  0 
  3  5  1  0  0  0  0 
  5  6  2  0  0  0  0 
  5  7  1  0  0  0  0 
  7  8  1  0  0  0  0 
  8  9  1  0  0  0  0 
  9 10  2  0  0  0  0 
  3 10  1  0  0  0  0 
 10 11  1  0  0  0  0 
 11 12  2  0  0  0  0 
 12 13  1  0  0  0  0 
 13 14  1  0  0  0  0 
 14 15  1  0  0  0  0 
 15 16  2  0  0  0  0 
 16 17  1  0  0  0  0 
 17 18  2  0  0  0  0 
 18 19  1  0  0  0  0 
 19 20  2  0  0  0  0 
 20 21  1  0  0  0  0 
 21 22  2  0  0  0  0 
 17 22  1  0  0  0  0 
 22 23  1  0  0  0  0 
 23 24  2  0  0  0  0 
 12 24  1  0  0  0  0 
 15 24  1  0  0  0  0 
 13 25  1  0  0  0  0 
  9 25  1  0  0  0  0 
 25 26  2  0  0  0  0 
M  END
> <SMILES>
CC[C@@]1(O)C(=O)OCC2=C1C=C1N(CC3=CC4=CC=CC=C4N=C13)C2=O

$$$$

  CDK     06141809482D

 19 20  0  0  0  0  0  0  0  0999 V2000
    6.4503    5.9793    0.0000 C   0  0  0  0  0  0  0  0  0  0  0  0
    6.4505    4.4793    0.0000 N   0  0  0  0  0  0  0  0  0  0  0  0
    7.7496    3.7295    0.0000 C   0  0  0  0  0  0  0  0  0  0  0  0
    5.1516    3.7291    0.0000 C   0  0  0  0  0  0  0  0  0  0  0  0
    5.1518    2.2291    0.0000 C   0  0  0  0  0  0  0  0  0  0  0  0
    3.8529    1.4789    0.0000 C   0  0  0  0  0  0  0  0  0  0  0  0
    2.5537    2.2286    0.0000 C   0  0  0  0  0  0  0  0  0  0  0  0
    1.2540    1.4782    0.0000 C   0  0  0  0  0  0  0  0  0  0  0  0
   -0.0463    2.2278    0.0000 C   0  0  0  0  0  0  0  0  0  0  0  0
   -0.0467    3.7278    0.0000 C   0  0  0  0  0  0  0  0  0  0  0  0
   -1.3459    4.4776    0.0000 Br  0  0  0  0  0  0  0  0  0  0  0  0
    1.2530    4.4782    0.0000 C   0  0  0  0  0  0  0  0  0  0  0  0
    2.5533    3.7286    0.0000 C   0  0  0  0  0  0  0  0  0  0  0  0
    3.8531   -0.0211    0.0000 C   0  0  0  0  0  0  0  0  0  0  0  0
    5.1522   -0.7711    0.0000 C   0  0  0  0  0  0  0  0  0  0  0  0
    5.1517   -2.2720    0.0000 N   0  0  0  0  0  0  0  0  0  0  0  0
    3.8522   -3.0228    0.0000 C   0  0  0  0  0  0  0  0  0  0  0  0
    2.5531   -2.2728    0.0000 C   0  0  0  0  0  0  0  0  0  0  0  0
    2.5536   -0.7720    0.0000 C   0  0  0  0  0  0  0  0  0  0  0  0
  1  2  1  0  0  0  0 
  2  3  1  0  0  0  0 
  2  4  1  0  0  0  0 
  4  5  1  4  0  0  0 
  5  6  2  0  0  0  0 
  6  7  1  0  0  0  0 
  7  8  2  0  0  0  0 
  8  9  1  0  0  0  0 
  9 10  2  0  0  0  0 
 10 11  1  0  0  0  0 
 10 12  1  0  0  0  0 
 12 13  2  0  0  0  0 
  7 13  1  0  0  0  0 
  6 14  1  0  0  0  0 
 14 15  2  0  0  0  0 
 15 16  1  0  0  0  0 
 16 17  2  0  0  0  0 
 17 18  1  0  0  0  0 
 18 19  2  0  0  0  0 
 14 19  1  0  0  0  0 
M  END
> <SMILES>
CN(C)CC=C(C1=CC=C(Br)C=C1)C1=CN=CC=C1

$$$$

  CDK     06141809482D

 13 14  0  0  0  0  0  0  0  0999 V2000
    5.1981   -0.7504    0.0000 N   0  0  0  0  0  0  0  0  0  0  0  0
    3.8989   -1.5002    0.0000 C   0  0  0  0  0  0  0  0  0  0  0  0
    3.8987   -3.0002    0.0000 N   0  0  0  0  0  0  0  0  0  0  0  0
    2.6000   -0.7500    0.0000 N   0  0  0  0  0  0  0  0  0  0  0  0
    2.6000    0.7500    0.0000 C   0  0  0  0  0  0  0  0  0  0  0  0
    1.3000    1.5000    0.0000 C   0  0  0  0  0  0  0  0  0  0  0  0
    0.0000    0.7500    0.0000 C   0  0  0  0  0  0  0  0  0  0  0  0
   -1.3000    1.5000    0.0000 C   0  0  0  0  0  0  0  0  0  0  0  0
   -2.6000    0.7500    0.0000 C   0  0  0  0  0  0  0  0  0  0  0  0
   -2.6000   -0.7500    0.0000 C   0  0  0  0  0  0  0  0  0  0  0  0
   -1.3000   -1.5000    0.0000 C   0  0  0  0  0  0  0  0  0  0  0  0
    0.0000   -0.7500    0.0000 C   0  0  0  0  0  0  0  0  0  0  0  0
    1.3000   -1.5000    0.0000 C   0  0  0  0  0  0  0  0  0  0  0  0
  1  2  1  0  0  0  0 
  2  3  2  0  0  0  0 
  2  4  1  0  0  0  0 
  4  5  1  0  0  0  0 
  5  6  1  0  0  0  0 
  6  7  1  0  0  0  0 
  7  8  2  0  0  0  0 
  8  9  1  0  0  0  0 
  9 10  2  0  0  0  0 
 10 11  1  0  0  0  0 
 11 12  2  0  0  0  0 
  7 12  1  0  0  0  0 
 12 13  1  0  0  0  0 
  4 13  1  0  0  0  0 
M  END
> <SMILES>
NC(=N)N1CCC2=CC=CC=C2C1

$$$$

  CDK     06141809482D

 39 41  0  0  0  0  0  0  0  0999 V2000
   15.7087   10.9489    0.0000 C   0  0  0  0  0  0  0  0  0  0  0  0
   14.2453   10.6195    0.0000 C   0  0  0  0  0  0  0  0  0  0  0  0
   13.7988    9.1875    0.0000 C   0  0  0  0  0  0  0  0  0  0  0  0
   12.3354    8.8581    0.0000 C   0  0  0  0  0  0  0  0  0  0  0  0
   11.8890    7.4261    0.0000 N   0  0  0  0  0  0  0  0  0  0  0  0
   12.9059    6.3234    0.0000 C   0  0  0  0  0  0  0  0  0  0  0  0
   14.3693    6.6528    0.0000 C   0  0  0  0  0  0  0  0  0  0  0  0
   14.8157    8.0848    0.0000 C   0  0  0  0  0  0  0  0  0  0  0  0
   16.2791    8.4142    0.0000 C   0  0  0  0  0  0  0  0  0  0  0  0
   10.4256    7.0967    0.0000 C   0  0  0  0  0  0  0  0  0  0  0  0
    9.9791    5.6647    0.0000 C   0  0  0  0  0  0  0  0  0  0  0  0
    8.5157    5.3353    0.0000 C   0  0  0  0  0  0  0  0  0  0  0  0
    8.0693    3.9033    0.0000 O   0  0  0  0  0  0  0  0  0  0  0  0
    6.6059    3.5740    0.0000 C   0  0  0  0  0  0  0  0  0  0  0  0
    5.5495    4.7005    0.0000 C   0  0  0  0  0  0  0  0  0  0  0  0
    4.1111    4.3744    0.0000 C   0  0  0  0  0  0  0  0  0  0  0  0
    3.6529    2.9461    0.0000 C   0  0  0  0  0  0  0  0  0  0  0  0
    4.6330    1.8439    0.0000 C   0  0  0  0  0  0  0  0  0  0  0  0
    6.1476    2.1457    0.0000 C   0  0  0  0  0  0  0  0  0  0  0  0
    2.1853    2.6360    0.0000 C   0  0  0  0  0  0  0  0  0  0  0  0
    1.1830    3.7520    0.0000 O   0  0  0  0  0  0  0  0  0  0  0  0
    1.7200    1.2100    0.0000 C   0  0  0  0  0  0  0  0  0  0  0  0
    2.6000    0.0000    0.0000 C   0  0  0  0  0  0  0  0  0  0  0  0
    4.1000   -0.0000    0.0000 C   0  0  0  0  0  0  0  0  0  0  0  0
    4.8500   -1.2990    0.0000 C   0  0  0  0  0  0  0  0  0  0  0  0
    4.1000   -2.5981    0.0000 C   0  0  0  0  0  0  0  0  0  0  0  0
    4.8500   -3.8971    0.0000 C   0  0  0  0  0  0  0  0  0  0  0  0
    1.7200   -1.2100    0.0000 O   0  0  0  0  0  0  0  0  0  0  0  0
    0.2900   -0.7500    0.0000 C   0  0  0  0  0  0  0  0  0  0  0  0
    0.2900    0.7500    0.0000 C   0  0  0  0  0  0  0  0  0  0  0  0
   -1.0100    1.5000    0.0000 C   0  0  0  0  0  0  0  0  0  0  0  0
   -2.3100    0.7500    0.0000 C   0  0  0  0  0  0  0  0  0  0  0  0
   -3.6089    1.5002    0.0000 N   0  0  0  0  0  0  0  0  0  0  0  0
   -4.9081    0.7504    0.0000 S   0  0  0  0  0  0  0  0  0  0  0  0
   -6.2070    1.5006    0.0000 C   0  0  0  0  0  0  0  0  0  0  0  0
   -5.8724   -0.3985    0.0000 O   0  0  0  0  0  0  0  0  0  0  0  0
   -3.9441   -0.3988    0.0000 O   0  0  0  0  0  0  0  0  0  0  0  0
   -2.3100   -0.7500    0.0000 C   0  0  0  0  0  0  0  0  0  0  0  0
   -1.0100   -1.5000    0.0000 C   0  0  0  0  0  0  0  0  0  0  0  0
  1  2  1  0  0  0  0 
  2  3  1  0  0  0  0 
  3  4  1  0  0  0  0 
  4  5  1  0  0  0  0 
  5  6  1  0  0  0  0 
  6  7  1  0  0  0  0 
  7  8  1  0  0  0  0 
  8  9  1  0  0  0  0 
  5 10  1  0  0  0  0 
 10 11  1  0  0  0  0 
 11 12  1  0  0  0  0 
 12 13  1  0  0  0  0 
 13 14  1  0  0  0  0 
 14 15  2  0  0  0  0 
 15 16  1  0  0  0  0 
 16 17  2  0  0  0  0 
 17 18  1  0  0  0  0 
 18 19  2  0  0  0  0 
 14 19  1  0  0  0  0 
 17 20  1  0  0  0  0 
 20 21  2  0  0  0  0 
 20 22  1  0  0  0  0 
 22 23  2  0  0  0  0 
 23 24  1  0  0  0  0 
 24 25  1  0  0  0  0 
 25 26  1  0  0  0  0 
 26 27  1  0  0  0  0 
 23 28  1  0  0  0  0 
 28 29  1  0  0  0  0 
 29 30  2  0  0  0  0 
 22 30  1  0  0  0  0 
 30 31  1  0  0  0  0 
 31 32  2  0  0  0  0 
 32 33  1  0  0  0  0 
 33 34  1  0  0  0  0 
 34 35  1  0  0  0  0 
 34 36  2  0  0  0  0 
 34 37  2  0  0  0  0 
 32 38  1  0  0  0  0 
 38 39  2  0  0  0  0 
 29 39  1  0  0  0  0 
M  END
> <SMILES>
CCCCN(CCCC)CCCOC1=CC=C(C=C1)C(=O)C1=C(CCCC)OC2=C1C=C(NS(C)(=O)=O)C=C2

$$$$

  CDK     06141809482D

 22 23  0  0  0  0  0  0  0  0999 V2000
   -9.4183   -0.9373    0.0000 O   0  0  0  0  0  0  0  0  0  0  0  0
   -8.1191   -0.1875    0.0000 N   0  0  0  0  0  0  0  0  0  0  0  0
   -6.8202   -0.9377    0.0000 C   0  0  0  0  0  0  0  0  0  0  0  0
   -6.8204   -2.4377    0.0000 O   0  0  0  0  0  0  0  0  0  0  0  0
   -5.5210   -0.1879    0.0000 C   0  0  0  0  0  0  0  0  0  0  0  0
   -4.2221   -0.9381    0.0000 C   0  0  0  0  0  0  0  0  0  0  0  0
   -2.9230   -0.1883    0.0000 C   0  0  0  0  0  0  0  0  0  0  0  0
   -2.9225    1.3125    0.0000 C   0  0  0  0  0  0  0  0  0  0  0  0
   -1.6230    2.0633    0.0000 C   0  0  0  0  0  0  0  0  0  0  0  0
   -0.3239    1.3133    0.0000 C   0  0  0  0  0  0  0  0  0  0  0  0
   -0.3244   -0.1875    0.0000 C   0  0  0  0  0  0  0  0  0  0  0  0
   -1.6239   -0.9383    0.0000 C   0  0  0  0  0  0  0  0  0  0  0  0
    0.9746   -0.9375    0.0000 S   0  0  0  0  0  0  0  0  0  0  0  0
    0.0105   -2.0866    0.0000 O   0  0  0  0  0  0  0  0  0  0  0  0
    1.9388   -2.0866    0.0000 O   0  0  0  0  0  0  0  0  0  0  0  0
    2.2737   -0.1875    0.0000 N   0  0  0  0  0  0  0  0  0  0  0  0
    3.5727   -0.9375    0.0000 C   0  0  0  0  0  0  0  0  0  0  0  0
    3.5722   -2.4383    0.0000 C   0  0  0  0  0  0  0  0  0  0  0  0
    4.8713   -3.1883    0.0000 C   0  0  0  0  0  0  0  0  0  0  0  0
    6.1708   -2.4375    0.0000 C   0  0  0  0  0  0  0  0  0  0  0  0
    6.1713   -0.9367    0.0000 C   0  0  0  0  0  0  0  0  0  0  0  0
    4.8722   -0.1867    0.0000 C   0  0  0  0  0  0  0  0  0  0  0  0
  1  2  1  0  0  0  0 
  2  3  1  0  0  0  0 
  3  4  2  0  0  0  0 
  3  5  1  4  0  0  0 
  5  6  2  0  0  0  0 
  6  7  1  0  0  0  0 
  7  8  2  0  0  0  0 
  8  9  1  0  0  0  0 
  9 10  2  0  0  0  0 
 10 11  1  0  0  0  0 
 11 12  2  0  0  0  0 
  7 12  1  0  0  0  0 
 11 13  1  0  0  0  0 
 13 14  2  0  0  0  0 
 13 15  2  0  0  0  0 
 13 16  1  0  0  0  0 
 16 17  1  0  0  0  0 
 17 18  2  0  0  0  0 
 18 19  1  0  0  0  0 
 19 20  2  0  0  0  0 
 20 21  1  0  0  0  0 
 21 22  2  0  0  0  0 
 17 22  1  0  0  0  0 
M  END
> <SMILES>
ONC(=O)C=CC1=CC=CC(=C1)S(=O)(=O)NC1=CC=CC=C1

$$$$

  CDK     06141809482D

 29 32  0  0  1  0  0  0  0  0999 V2000
  -10.0251   10.4039    0.0000 C   0  0  0  0  0  0  0  0  0  0  0  0
   -8.5251   10.4037    0.0000 C   0  0  0  0  0  0  0  0  0  0  0  0
   -7.7753    9.1045    0.0000 C   0  0  0  0  0  0  0  0  0  0  0  0
   -8.5253    7.8055    0.0000 C   0  0  0  0  0  0  0  0  0  0  0  0
  -10.0253    7.8052    0.0000 C   0  0  0  0  0  0  0  0  0  0  0  0
  -10.7755    9.1042    0.0000 C   0  0  0  0  0  0  0  0  0  0  0  0
   -7.7744    6.5060    0.0000 C   0  0  0  0  0  0  0  0  0  0  0  0
   -6.2736    6.5055    0.0000 C   0  0  0  0  0  0  0  0  0  0  0  0
   -5.2652    5.3921    0.0000 C   0  0  0  0  0  0  0  0  0  0  0  0
   -3.8981    6.0000    0.0000 C   0  0  0  0  0  0  0  0  0  0  0  0
   -4.0552    7.4879    0.0000 C   0  0  0  0  0  0  0  0  0  0  0  0
   -5.5236    7.8045    0.0000 C   0  0  0  0  0  0  0  0  0  0  0  0
   -6.2744    9.1040    0.0000 C   0  0  0  0  0  0  0  0  0  0  0  0
   -2.5990    5.2500    0.0000 N   0  0  0  0  0  0  0  0  0  0  0  0
   -2.5990    3.7500    0.0000 C   0  0  0  0  0  0  0  0  0  0  0  0
   -1.3000    3.0000    0.0000 C   0  0  2  0  0  0  0  0  0  0  0  0
   -0.0010    3.7500    0.0000 O   0  0  0  0  0  0  0  0  0  0  0  0
   -1.3000    1.5000    0.0000 C   0  0  0  0  0  0  0  0  0  0  0  0
   -0.0000    0.7500    0.0000 C   0  0  0  0  0  0  0  0  0  0  0  0
    1.3000    1.5000    0.0000 C   0  0  0  0  0  0  0  0  0  0  0  0
    2.6000    0.7500    0.0000 C   0  0  0  0  0  0  0  0  0  0  0  0
    2.6000   -0.7500    0.0000 C   0  0  0  0  0  0  0  0  0  0  0  0
    3.8989   -1.5002    0.0000 O   0  0  0  0  0  0  0  0  0  0  0  0
    1.3000   -1.5000    0.0000 N   0  0  0  0  0  0  0  0  0  0  0  0
   -0.0000   -0.7500    0.0000 C   0  0  0  0  0  0  0  0  0  0  0  0
   -1.3000   -1.5000    0.0000 C   0  0  0  0  0  0  0  0  0  0  0  0
   -1.3000   -3.0000    0.0000 O   0  0  0  0  0  0  0  0  0  0  0  0
   -2.6000   -0.7500    0.0000 C   0  0  0  0  0  0  0  0  0  0  0  0
   -2.6000    0.7500    0.0000 C   0  0  0  0  0  0  0  0  0  0  0  0
  1  2  1  0  0  0  0 
  2  3  1  0  0  0  0 
  3  4  2  0  0  0  0 
  4  5  1  0  0  0  0 
  5  6  1  0  0  0  0 
  4  7  1  0  0  0  0 
  7  8  2  0  0  0  0 
  8  9  1  0  0  0  0 
  9 10  1  0  0  0  0 
 10 11  1  0  0  0  0 
 11 12  1  0  0  0  0 
  8 12  1  0  0  0  0 
 12 13  2  0  0  0  0 
  3 13  1  0  0  0  0 
 10 14  1  0  0  0  0 
 14 15  1  0  0  0  0 
 15 16  1  0  0  0  0 
 16 17  1  6  0  0  0 
 16 18  1  0  0  0  0 
 18 19  2  0  0  0  0 
 19 20  1  0  0  0  0 
 20 21  2  0  0  0  0 
 21 22  1  0  0  0  0 
 22 23  2  0  0  0  0 
 22 24  1  0  0  0  0 
 24 25  1  0  0  0  0 
 19 25  1  0  0  0  0 
 25 26  2  0  0  0  0 
 26 27  1  0  0  0  0 
 26 28  1  0  0  0  0 
 28 29  2  0  0  0  0 
 18 29  1  0  0  0  0 
M  END
> <SMILES>
CCC1=C(CC)C=C2CC(CC2=C1)NC[C@H](O)C1=C2C=CC(=O)NC2=C(O)C=C1

$$$$

  CDK     06141809482D

 43 44  0  0  1  0  0  0  0  0999 V2000
   -4.2453    2.3335    0.0000 H   0  0  0  0  0  0  0  0  0  0  0  0
   -2.9482    3.0867    0.0000 C   0  0  0  0  0  0  0  0  0  0  0  0
   -2.9519    4.5867    0.0000 C   0  0  0  0  0  0  0  0  0  0  0  0
   -1.6472    2.3400    0.0000 C   0  0  0  0  0  0  0  0  0  0  0  0
   -1.6472    1.0300    0.0000 N   0  0  0  0  0  0  0  0  0  0  0  0
   -2.7872    0.3700    0.0000 C   0  0  0  0  0  0  0  0  0  0  0  0
   -4.0867    1.1192    0.0000 O   0  0  0  0  0  0  0  0  0  0  0  0
   -2.7872   -0.9400    0.0000 C   0  0  1  0  0  0  0  0  0  0  0  0
   -4.1496   -0.3123    0.0000 H   0  0  0  0  0  0  0  0  0  0  0  0
   -4.0272   -2.0000    0.0000 C   0  0  0  0  0  0  0  0  0  0  0  0
   -4.4672   -4.1400    0.0000 S   0  0  0  0  0  0  0  0  0  0  0  0
   -3.7672   -6.3600    0.0000 S   0  0  0  0  0  0  0  0  0  0  0  0
   -0.5072   -7.6100    0.0000 C   0  0  0  0  0  0  0  0  0  0  0  0
    3.0028   -6.0700    0.0000 C   0  0  0  0  0  0  0  0  0  0  0  0
    2.8628   -4.0900    0.0000 C   0  0  0  0  0  0  0  0  0  0  0  0
    4.3025   -4.5109    0.0000 H   0  0  0  0  0  0  0  0  0  0  0  0
    4.0528   -2.4900    0.0000 C   0  0  0  0  0  0  0  0  0  0  0  0
    5.5507   -2.5684    0.0000 H   0  0  0  0  0  0  0  0  0  0  0  0
    3.2528   -1.1400    0.0000 C   0  0  2  0  0  0  0  0  0  0  0  0
    4.7499   -1.0473    0.0000 H   0  0  0  0  0  0  0  0  0  0  0  0
    1.7628   -0.9400    0.0000 C   0  0  0  0  0  0  0  0  0  0  0  0
    0.6228   -1.6000    0.0000 C   0  0  0  0  0  0  0  0  0  0  0  0
   -0.6767   -0.8508    0.0000 O   0  0  0  0  0  0  0  0  0  0  0  0
    0.6228   -2.9100    0.0000 N   0  0  0  0  0  0  0  0  0  0  0  0
   -0.5172   -3.5700    0.0000 C   0  0  2  0  0  0  0  0  0  0  0  0
   -1.4848   -4.7162    0.0000 H   0  0  0  0  0  0  0  0  0  0  0  0
    0.4459   -4.7199    0.0000 C   0  0  0  0  0  0  0  0  0  0  0  0
   -0.0683   -6.1290    0.0000 C   0  0  0  0  0  0  0  0  0  0  0  0
    1.9234   -4.4607    0.0000 C   0  0  0  0  0  0  0  0  0  0  0  0
   -1.6472   -2.9100    0.0000 C   0  0  0  0  0  0  0  0  0  0  0  0
   -2.9482   -3.6567    0.0000 O   0  0  0  0  0  0  0  0  0  0  0  0
   -1.6472   -1.6000    0.0000 N   0  0  0  0  0  0  0  0  0  0  0  0
    4.0728    0.7400    0.0000 O   0  0  0  0  0  0  0  0  0  0  0  0
    3.3928    2.4400    0.0000 C   0  0  0  0  0  0  0  0  0  0  0  0
    4.4268    3.5266    0.0000 O   0  0  0  0  0  0  0  0  0  0  0  0
    1.7628    3.0000    0.0000 C   0  0  1  0  0  0  0  0  0  0  0  0
    2.5713    4.2634    0.0000 H   0  0  0  0  0  0  0  0  0  0  0  0
    0.6228    2.3400    0.0000 N   0  0  0  0  0  0  0  0  0  0  0  0
   -0.5172    3.0000    0.0000 C   0  0  0  0  0  0  0  0  0  0  0  0
   -0.5229    5.9400    0.0000 O   0  0  0  0  0  0  0  0  0  0  0  0
    0.7260    4.0840    0.0000 C   0  0  0  0  0  0  0  0  0  0  0  0
    1.1463    5.5239    0.0000 C   0  0  0  0  0  0  0  0  0  0  0  0
   -0.7651    4.2479    0.0000 C   0  0  0  0  0  0  0  0  0  0  0  0
  1  2  1  4  0  0  0 
  2  3  1  0  0  0  0 
  2  4  2  0  0  0  0 
  4  5  1  0  0  0  0 
  5  6  2  0  0  0  0 
  6  7  1  0  0  0  0 
  6  8  1  0  0  0  0 
  8  9  1  1  0  0  0 
  8 10  1  0  0  0  0 
 10 11  1  0  0  0  0 
 11 12  1  0  0  0  0 
 12 13  1  0  0  0  0 
 13 14  1  0  0  0  0 
 14 15  1  0  0  0  0 
 15 16  1  0  0  0  0 
 15 17  2  0  0  0  0 
 17 18  1  0  0  0  0 
 17 19  1  0  0  0  0 
 19 20  1  1  0  0  0 
 19 21  1  0  0  0  0 
 21 22  1  0  0  0  0 
 22 23  1  0  0  0  0 
 22 24  2  0  0  0  0 
 24 25  1  0  0  0  0 
 25 26  1  1  0  0  0 
 25 27  1  0  0  0  0 
 27 28  1  0  0  0  0 
 27 29  1  0  0  0  0 
 25 30  1  6  0  0  0 
 30 31  1  0  0  0  0 
 30 32  2  0  0  0  0 
  8 32  1  0  0  0  0 
 19 33  1  0  0  0  0 
 33 34  1  0  0  0  0 
 34 35  2  0  0  0  0 
 36 34  1  1  0  0  0 
 36 37  1  6  0  0  0 
 36 38  1  0  0  0  0 
 38 39  2  0  0  0  0 
  4 39  1  0  0  0  0 
 39 40  1  0  0  0  0 
 36 41  1  0  0  0  0 
 41 42  1  0  0  0  0 
 41 43  1  0  0  0  0 
M  END
> <SMILES>
[H]C(C)=C1N=C(O)[C@@]2([H])CSSCCC([H])=C([H])[C@]([H])(CC(O)=N[C@]([H])(C(C)C)C(O)=N2)OC(=O)[C@@]([H])(N=C1O)C(C)C

$$$$

  CDK     06141809482D

 35 37  0  0  1  0  0  0  0  0999 V2000
   -4.9083   -0.7496    0.0000 C   0  0  0  0  0  0  0  0  0  0  0  0
   -4.9081    0.7504    0.0000 C   0  0  2  0  0  0  0  0  0  0  0  0
   -3.6089    1.5002    0.0000 C   0  0  0  0  0  0  0  0  0  0  0  0
   -2.3100    0.7500    0.0000 C   0  0  0  0  0  0  0  0  0  0  0  0
   -1.0100    1.5000    0.0000 C   0  0  0  0  0  0  0  0  0  0  0  0
    0.2900    0.7500    0.0000 C   0  0  0  0  0  0  0  0  0  0  0  0
    0.2900   -0.7500    0.0000 C   0  0  0  0  0  0  0  0  0  0  0  0
    1.7200   -1.2100    0.0000 N   0  0  0  0  0  0  0  0  0  0  0  0
    2.1853   -2.6360    0.0000 C   0  0  0  0  0  0  0  0  0  0  0  0
    3.6529   -2.9461    0.0000 C   0  0  0  0  0  0  0  0  0  0  0  0
    4.1182   -4.3721    0.0000 C   0  0  0  0  0  0  0  0  0  0  0  0
    5.5858   -4.6822    0.0000 O   0  0  0  0  0  0  0  0  0  0  0  0
    2.6000   -0.0000    0.0000 C   0  0  0  0  0  0  0  0  0  0  0  0
    1.7200    1.2100    0.0000 C   0  0  0  0  0  0  0  0  0  0  0  0
   -1.0100   -1.5000    0.0000 C   0  0  0  0  0  0  0  0  0  0  0  0
   -2.3100   -0.7500    0.0000 C   0  0  0  0  0  0  0  0  0  0  0  0
   -1.0100   -3.0000    0.0000 C   0  0  0  0  0  0  0  0  0  0  0  0
    0.2890   -3.7500    0.0000 N   0  0  0  0  0  0  0  0  0  0  0  0
   -2.3090   -3.7500    0.0000 O   0  0  0  0  0  0  0  0  0  0  0  0
   -6.2070    1.5006    0.0000 N   0  0  0  0  0  0  0  0  0  0  0  0
   -7.5062    0.7508    0.0000 C   0  0  0  0  0  0  0  0  0  0  0  0
   -8.8051    1.5010    0.0000 C   0  0  0  0  0  0  0  0  0  0  0  0
  -10.1042    0.7512    0.0000 O   0  0  0  0  0  0  0  0  0  0  0  0
  -11.4031    1.5015    0.0000 C   0  0  0  0  0  0  0  0  0  0  0  0
  -11.4049    2.9936    0.0000 C   0  0  0  0  0  0  0  0  0  0  0  0
  -12.7026    3.7460    0.0000 C   0  0  0  0  0  0  0  0  0  0  0  0
  -13.9985    3.0062    0.0000 C   0  0  0  0  0  0  0  0  0  0  0  0
  -14.0017    1.5054    0.0000 C   0  0  0  0  0  0  0  0  0  0  0  0
  -12.7040    0.7530    0.0000 C   0  0  0  0  0  0  0  0  0  0  0  0
  -12.7066   -0.7470    0.0000 O   0  0  0  0  0  0  0  0  0  0  0  0
  -14.0068   -1.4948    0.0000 C   0  0  0  0  0  0  0  0  0  0  0  0
  -15.3046   -0.7426    0.0000 C   0  0  0  0  0  0  0  0  0  0  0  0
  -16.6049   -1.4905    0.0000 F   0  0  0  0  0  0  0  0  0  0  0  0
  -14.3385    0.4048    0.0000 F   0  0  0  0  0  0  0  0  0  0  0  0
  -16.2669    0.4080    0.0000 F   0  0  0  0  0  0  0  0  0  0  0  0
  2  1  1  1  0  0  0 
  2  3  1  0  0  0  0 
  3  4  1  0  0  0  0 
  4  5  2  0  0  0  0 
  5  6  1  0  0  0  0 
  6  7  2  0  0  0  0 
  7  8  1  0  0  0  0 
  8  9  1  0  0  0  0 
  9 10  1  0  0  0  0 
 10 11  1  0  0  0  0 
 11 12  1  0  0  0  0 
  8 13  1  0  0  0  0 
 13 14  1  0  0  0  0 
  6 14  1  0  0  0  0 
  7 15  1  0  0  0  0 
 15 16  2  0  0  0  0 
  4 16  1  0  0  0  0 
 15 17  1  0  0  0  0 
 17 18  1  0  0  0  0 
 17 19  2  0  0  0  0 
  2 20  1  0  0  0  0 
 20 21  1  0  0  0  0 
 21 22  1  0  0  0  0 
 22 23  1  0  0  0  0 
 23 24  1  0  0  0  0 
 24 25  2  0  0  0  0 
 25 26  1  0  0  0  0 
 26 27  2  0  0  0  0 
 27 28  1  0  0  0  0 
 28 29  2  0  0  0  0 
 24 29  1  0  0  0  0 
 29 30  1  0  0  0  0 
 30 31  1  0  0  0  0 
 31 32  1  0  0  0  0 
 32 33  1  0  0  0  0 
 32 34  1  0  0  0  0 
 32 35  1  0  0  0  0 
M  END
> <SMILES>
C[C@H](CC1=CC2=C(N(CCCO)CC2)C(=C1)C(N)=O)NCCOC1=CC=CC=C1OCC(F)(F)F

$$$$

  CDK     06141809482D

 29 32  0  0  1  0  0  0  0  0999 V2000
   10.0898    1.4388    0.0000 Cl  0  0  0  0  0  0  0  0  0  0  0  0
    8.6621    0.9788    0.0000 C   0  0  0  0  0  0  0  0  0  0  0  0
    8.2021   -0.4412    0.0000 C   0  0  0  0  0  0  0  0  0  0  0  0
    6.7021   -0.4412    0.0000 C   0  0  0  0  0  0  0  0  0  0  0  0
    6.2421    0.9788    0.0000 C   0  0  0  0  0  0  0  0  0  0  0  0
    7.4521    1.8688    0.0000 S   0  0  0  0  0  0  0  0  0  0  0  0
    4.8143    1.4388    0.0000 C   0  0  0  0  0  0  0  0  0  0  0  0
    4.4988    2.9053    0.0000 O   0  0  0  0  0  0  0  0  0  0  0  0
    3.7021    0.4324    0.0000 N   0  0  0  0  0  0  0  0  0  0  0  0
    2.2744    0.8923    0.0000 C   0  0  0  0  0  0  0  0  0  0  0  0
    1.1622   -0.1141    0.0000 C   0  0  1  0  0  0  0  0  0  0  0  0
   -0.2976    0.1975    0.0000 C   0  0  0  0  0  0  0  0  0  0  0  0
   -1.0476   -1.1016    0.0000 N   0  0  0  0  0  0  0  0  0  0  0  0
   -0.0478   -2.2099    0.0000 C   0  0  0  0  0  0  0  0  0  0  0  0
   -0.3633   -3.6764    0.0000 O   0  0  0  0  0  0  0  0  0  0  0  0
    1.3279   -1.6070    0.0000 O   0  0  0  0  0  0  0  0  0  0  0  0
   -2.5393   -1.2590    0.0000 C   0  0  0  0  0  0  0  0  0  0  0  0
   -3.4066   -0.0509    0.0000 C   0  0  0  0  0  0  0  0  0  0  0  0
   -4.9068   -0.2244    0.0000 C   0  0  0  0  0  0  0  0  0  0  0  0
   -5.5108   -1.5929    0.0000 C   0  0  0  0  0  0  0  0  0  0  0  0
   -4.6136   -2.7979    0.0000 C   0  0  0  0  0  0  0  0  0  0  0  0
   -3.1423   -2.6375    0.0000 C   0  0  0  0  0  0  0  0  0  0  0  0
   -7.0013   -1.7608    0.0000 N   0  0  0  0  0  0  0  0  0  0  0  0
   -7.8921   -0.5529    0.0000 C   0  0  0  0  0  0  0  0  0  0  0  0
   -9.3827   -0.7208    0.0000 C   0  0  0  0  0  0  0  0  0  0  0  0
   -9.9825   -2.0966    0.0000 O   0  0  0  0  0  0  0  0  0  0  0  0
   -9.0917   -3.3045    0.0000 C   0  0  0  0  0  0  0  0  0  0  0  0
   -7.6011   -3.1366    0.0000 C   0  0  0  0  0  0  0  0  0  0  0  0
   -6.7102   -4.3433    0.0000 O   0  0  0  0  0  0  0  0  0  0  0  0
  1  2  1  0  0  0  0 
  2  3  2  0  0  0  0 
  3  4  1  0  0  0  0 
  4  5  2  0  0  0  0 
  5  6  1  0  0  0  0 
  2  6  1  0  0  0  0 
  5  7  1  0  0  0  0 
  7  8  2  0  0  0  0 
  7  9  1  0  0  0  0 
  9 10  1  0  0  0  0 
 11 10  1  6  0  0  0 
 11 12  1  0  0  0  0 
 12 13  1  0  0  0  0 
 13 14  1  0  0  0  0 
 14 15  2  0  0  0  0 
 14 16  1  0  0  0  0 
 11 16  1  0  0  0  0 
 13 17  1  0  0  0  0 
 17 18  2  0  0  0  0 
 18 19  1  0  0  0  0 
 19 20  2  0  0  0  0 
 20 21  1  0  0  0  0 
 21 22  2  0  0  0  0 
 17 22  1  0  0  0  0 
 20 23  1  0  0  0  0 
 23 24  1  0  0  0  0 
 24 25  1  0  0  0  0 
 25 26  1  0  0  0  0 
 26 27  1  0  0  0  0 
 27 28  1  0  0  0  0 
 23 28  1  0  0  0  0 
 28 29  2  0  0  0  0 
M  END
> <SMILES>
ClC1=CC=C(S1)C(=O)NC[C@H]1CN(C(=O)O1)C1=CC=C(C=C1)N1CCOCC1=O

$$$$

  CDK     06141809482D

 28 30  0  0  1  0  0  0  0  0999 V2000
   14.3180   -3.7074    0.0000 C   0  0  0  0  0  0  0  0  0  0  0  0
   13.0094   -2.9742    0.0000 C   0  0  0  0  0  0  0  0  0  0  0  0
   11.7201   -3.7408    0.0000 O   0  0  0  0  0  0  0  0  0  0  0  0
   10.4116   -3.0076    0.0000 C   0  0  0  0  0  0  0  0  0  0  0  0
   10.3790   -1.4636    0.0000 C   0  0  0  0  0  0  0  0  0  0  0  0
    9.0911   -0.7447    0.0000 C   0  0  0  0  0  0  0  0  0  0  0  0
    7.7956   -1.5006    0.0000 C   0  0  0  0  0  0  0  0  0  0  0  0
    6.4968   -0.7502    0.0000 C   0  0  0  0  0  0  0  0  0  0  0  0
    5.1975   -1.4998    0.0000 C   0  0  0  0  0  0  0  0  0  0  0  0
    5.1968   -3.0006    0.0000 C   0  0  0  0  0  0  0  0  0  0  0  0
    6.4957   -3.7508    0.0000 Cl  0  0  0  0  0  0  0  0  0  0  0  0
    3.8971   -3.7512    0.0000 C   0  0  0  0  0  0  0  0  0  0  0  0
    2.5982   -3.0010    0.0000 C   0  0  0  0  0  0  0  0  0  0  0  0
    2.5989   -1.5002    0.0000 C   0  0  0  0  0  0  0  0  0  0  0  0
    3.8986   -0.7496    0.0000 C   0  0  0  0  0  0  0  0  0  0  0  0
    1.3000   -0.7500    0.0000 C   0  0  2  0  0  0  0  0  0  0  0  0
   -0.0000   -1.5000    0.0000 O   0  0  0  0  0  0  0  0  0  0  0  0
   -1.3000   -0.7500    0.0000 C   0  0  2  0  0  0  0  0  0  0  0  0
   -2.5989   -1.5002    0.0000 C   0  0  0  0  0  0  0  0  0  0  0  0
   -3.8981   -0.7504    0.0000 O   0  0  0  0  0  0  0  0  0  0  0  0
   -1.3000    0.7500    0.0000 C   0  0  1  0  0  0  0  0  0  0  0  0
   -2.5989    1.5002    0.0000 O   0  0  0  0  0  0  0  0  0  0  0  0
   -0.0000    1.5000    0.0000 C   0  0  2  0  0  0  0  0  0  0  0  0
    0.0000    3.0000    0.0000 O   0  0  0  0  0  0  0  0  0  0  0  0
    1.3000    0.7500    0.0000 C   0  0  1  0  0  0  0  0  0  0  0  0
    2.5989    1.5002    0.0000 O   0  0  0  0  0  0  0  0  0  0  0  0
    7.7878   -2.9755    0.0000 C   0  0  0  0  0  0  0  0  0  0  0  0
    9.1160   -3.7636    0.0000 C   0  0  0  0  0  0  0  0  0  0  0  0
  1  2  1  0  0  0  0 
  2  3  1  0  0  0  0 
  3  4  1  0  0  0  0 
  4  5  2  0  0  0  0 
  5  6  1  0  0  0  0 
  6  7  2  0  0  0  0 
  7  8  1  0  0  0  0 
  8  9  1  0  0  0  0 
  9 10  2  0  0  0  0 
 10 11  1  0  0  0  0 
 10 12  1  0  0  0  0 
 12 13  2  0  0  0  0 
 13 14  1  0  0  0  0 
 14 15  2  0  0  0  0 
  9 15  1  0  0  0  0 
 16 14  1  6  0  0  0 
 16 17  1  0  0  0  0 
 17 18  1  0  0  0  0 
 18 19  1  6  0  0  0 
 19 20  1  0  0  0  0 
 18 21  1  0  0  0  0 
 21 22  1  1  0  0  0 
 21 23  1  0  0  0  0 
 23 24  1  6  0  0  0 
 23 25  1  0  0  0  0 
 16 25  1  0  0  0  0 
 25 26  1  1  0  0  0 
  7 27  1  0  0  0  0 
 27 28  2  0  0  0  0 
  4 28  1  0  0  0  0 
M  END
> <SMILES>
CCOC1=CC=C(CC2=C(Cl)C=CC(=C2)[C@@H]2O[C@H](CO)[C@@H](O)[C@H](O)[C@H]2O)C=C1

$$$$

  CDK     06141809482D

 28 30  0  0  1  0  0  0  0  0999 V2000
   -1.7910    0.7081    0.0000 C   0  0  0  0  0  0  0  0  0  0  0  0
   -0.4921    1.4583    0.0000 O   0  0  0  0  0  0  0  0  0  0  0  0
    0.8071    0.7085    0.0000 C   0  0  0  0  0  0  0  0  0  0  0  0
    2.1060    1.4587    0.0000 C   0  0  2  0  0  0  0  0  0  0  0  0
    3.4051    0.7089    0.0000 O   0  0  0  0  0  0  0  0  0  0  0  0
    4.7041    1.4591    0.0000 C   0  0  0  0  0  0  0  0  0  0  0  0
    6.0041    0.7091    0.0000 N   0  0  0  0  0  0  0  0  0  0  0  0
    7.3041    1.4591    0.0000 C   0  0  0  0  0  0  0  0  0  0  0  0
    8.6030    0.7089    0.0000 C   0  0  0  0  0  0  0  0  0  0  0  0
    7.3041    2.9591    0.0000 C   0  0  0  0  0  0  0  0  0  0  0  0
    6.0041    3.7091    0.0000 C   0  0  0  0  0  0  0  0  0  0  0  0
    6.0041    5.2091    0.0000 C   0  0  0  0  0  0  0  0  0  0  0  0
    4.7041    2.9591    0.0000 N   0  0  0  0  0  0  0  0  0  0  0  0
    2.1057    2.9587    0.0000 C   0  0  0  0  0  0  0  0  0  0  0  0
    0.8066    3.7085    0.0000 O   0  0  0  0  0  0  0  0  0  0  0  0
    3.4047    3.7089    0.0000 O   0  0  0  0  0  0  0  0  0  0  0  0
   -0.1569   -0.4407    0.0000 C   0  0  0  0  0  0  0  0  0  0  0  0
    0.3571   -1.8508    0.0000 C   0  0  0  0  0  0  0  0  0  0  0  0
   -0.6069   -3.0000    0.0000 C   0  0  0  0  0  0  0  0  0  0  0  0
   -2.0849   -2.7391    0.0000 C   0  0  0  0  0  0  0  0  0  0  0  0
   -2.5989   -1.3291    0.0000 C   0  0  0  0  0  0  0  0  0  0  0  0
   -1.6349   -0.1799    0.0000 C   0  0  0  0  0  0  0  0  0  0  0  0
    1.7714   -0.4404    0.0000 C   0  0  0  0  0  0  0  0  0  0  0  0
    3.2493   -0.1791    0.0000 C   0  0  0  0  0  0  0  0  0  0  0  0
    4.2137   -1.3280    0.0000 C   0  0  0  0  0  0  0  0  0  0  0  0
    3.7002   -2.7382    0.0000 C   0  0  0  0  0  0  0  0  0  0  0  0
    2.2223   -2.9995    0.0000 C   0  0  0  0  0  0  0  0  0  0  0  0
    1.2579   -1.8506    0.0000 C   0  0  0  0  0  0  0  0  0  0  0  0
  1  2  1  0  0  0  0 
  2  3  1  0  0  0  0 
  3  4  1  0  0  0  0 
  4  5  1  1  0  0  0 
  5  6  1  0  0  0  0 
  6  7  2  0  0  0  0 
  7  8  1  0  0  0  0 
  8  9  1  0  0  0  0 
  8 10  2  0  0  0  0 
 10 11  1  0  0  0  0 
 11 12  1  0  0  0  0 
 11 13  2  0  0  0  0 
  6 13  1  0  0  0  0 
  4 14  1  0  0  0  0 
 14 15  1  0  0  0  0 
 14 16  2  0  0  0  0 
  3 17  1  0  0  0  0 
 17 18  2  0  0  0  0 
 18 19  1  0  0  0  0 
 19 20  2  0  0  0  0 
 20 21  1  0  0  0  0 
 21 22  2  0  0  0  0 
 17 22  1  0  0  0  0 
  3 23  1  0  0  0  0 
 23 24  2  0  0  0  0 
 24 25  1  0  0  0  0 
 25 26  2  0  0  0  0 
 26 27  1  0  0  0  0 
 27 28  2  0  0  0  0 
 23 28  1  0  0  0  0 
M  END
> <SMILES>
COC([C@H](OC1=NC(C)=CC(C)=N1)C(O)=O)(C1=CC=CC=C1)C1=CC=CC=C1

$$$$

  CDK     06141809482D

 28 30  0  0  0  0  0  0  0  0999 V2000
   -0.6500    1.8744    0.0000 C   0  0  0  0  0  0  0  0  0  0  0  0
   -1.9488    2.6248    0.0000 C   0  0  0  0  0  0  0  0  0  0  0  0
   -3.2489    1.8750    0.0000 C   0  0  0  0  0  0  0  0  0  0  0  0
   -4.5488    2.6252    0.0000 C   0  0  0  0  0  0  0  0  0  0  0  0
   -4.5486    4.1252    0.0000 C   0  0  0  0  0  0  0  0  0  0  0  0
   -3.2484    4.8750    0.0000 C   0  0  0  0  0  0  0  0  0  0  0  0
   -3.2482    6.3750    0.0000 C   0  0  0  0  0  0  0  0  0  0  0  0
   -1.9486    4.1248    0.0000 C   0  0  0  0  0  0  0  0  0  0  0  0
   -0.6495    4.8748    0.0000 O   0  0  0  0  0  0  0  0  0  0  0  0
    0.6495    4.1248    0.0000 C   0  0  0  0  0  0  0  0  0  0  0  0
    1.9490    4.8756    0.0000 C   0  0  0  0  0  0  0  0  0  0  0  0
    1.9488    6.3756    0.0000 Br  0  0  0  0  0  0  0  0  0  0  0  0
    3.2481    4.1256    0.0000 C   0  0  0  0  0  0  0  0  0  0  0  0
    4.5472    4.8754    0.0000 N   0  0  0  0  0  0  0  0  0  0  0  0
    3.2476    2.6248    0.0000 N   0  0  0  0  0  0  0  0  0  0  0  0
    1.9481    1.8740    0.0000 C   0  0  0  0  0  0  0  0  0  0  0  0
    1.9483    0.3740    0.0000 N   0  0  0  0  0  0  0  0  0  0  0  0
    3.2475   -0.3758    0.0000 C   0  0  0  0  0  0  0  0  0  0  0  0
    4.5472    0.3746    0.0000 C   0  0  0  0  0  0  0  0  0  0  0  0
    5.8475   -0.3750    0.0000 C   0  0  0  0  0  0  0  0  0  0  0  0
    5.8480   -1.8750    0.0000 C   0  0  0  0  0  0  0  0  0  0  0  0
    4.5482   -2.6254    0.0000 C   0  0  0  0  0  0  0  0  0  0  0  0
    3.2480   -1.8758    0.0000 C   0  0  0  0  0  0  0  0  0  0  0  0
    7.1471   -2.6248    0.0000 C   0  0  0  0  0  0  0  0  0  0  0  0
    8.4463   -3.3746    0.0000 N   0  0  0  0  0  0  0  0  0  0  0  0
    0.6490    2.6240    0.0000 N   0  0  0  0  0  0  0  0  0  0  0  0
   -5.8478    1.8752    0.0000 C   0  0  0  0  0  0  0  0  0  0  0  0
   -7.1469    1.1252    0.0000 N   0  0  0  0  0  0  0  0  0  0  0  0
  1  2  1  0  0  0  0 
  2  3  2  0  0  0  0 
  3  4  1  0  0  0  0 
  4  5  2  0  0  0  0 
  5  6  1  0  0  0  0 
  6  7  1  0  0  0  0 
  6  8  2  0  0  0  0 
  2  8  1  0  0  0  0 
  8  9  1  0  0  0  0 
  9 10  1  0  0  0  0 
 10 11  2  0  0  0  0 
 11 12  1  0  0  0  0 
 11 13  1  0  0  0  0 
 13 14  1  0  0  0  0 
 13 15  2  0  0  0  0 
 15 16  1  0  0  0  0 
 16 17  1  0  0  0  0 
 17 18  1  0  0  0  0 
 18 19  2  0  0  0  0 
 19 20  1  0  0  0  0 
 20 21  2  0  0  0  0 
 21 22  1  0  0  0  0 
 22 23  2  0  0  0  0 
 18 23  1  0  0  0  0 
 21 24  1  0  0  0  0 
 24 25  3  0  0  0  0 
 16 26  2  0  0  0  0 
 10 26  1  0  0  0  0 
  4 27  1  0  0  0  0 
 27 28  3  0  0  0  0 
M  END
> <SMILES>
CC1=CC(=CC(C)=C1OC1=C(Br)C(N)=NC(NC2=CC=C(C=C2)C#N)=N1)C#N

$$$$

  CDK     06141809482D

 31 34  0  0  0  0  0  0  0  0999 V2000
   -4.9081    0.7504    0.0000 C   0  0  0  0  0  0  0  0  0  0  0  0
   -3.6089    1.5002    0.0000 N   0  0  0  0  0  0  0  0  0  0  0  0
   -2.3100    0.7500    0.0000 C   0  0  0  0  0  0  0  0  0  0  0  0
   -1.0100    1.5000    0.0000 C   0  0  0  0  0  0  0  0  0  0  0  0
    0.2900    0.7500    0.0000 C   0  0  0  0  0  0  0  0  0  0  0  0
    1.7200    1.2100    0.0000 N   0  0  0  0  0  0  0  0  0  0  0  0
    2.6000    0.0000    0.0000 N   0  0  0  0  0  0  0  0  0  0  0  0
    4.1000   -0.0000    0.0000 C   0  0  0  0  0  0  0  0  0  0  0  0
    1.7200   -1.2100    0.0000 C   0  0  0  0  0  0  0  0  0  0  0  0
    2.1853   -2.6360    0.0000 C   0  0  0  0  0  0  0  0  0  0  0  0
    0.2900   -0.7500    0.0000 C   0  0  0  0  0  0  0  0  0  0  0  0
   -1.0100   -1.5000    0.0000 C   0  0  0  0  0  0  0  0  0  0  0  0
   -2.3100   -0.7500    0.0000 C   0  0  0  0  0  0  0  0  0  0  0  0
   -3.6087    3.0002    0.0000 C   0  0  0  0  0  0  0  0  0  0  0  0
   -4.9086    3.7504    0.0000 C   0  0  0  0  0  0  0  0  0  0  0  0
   -4.9083    5.2504    0.0000 C   0  0  0  0  0  0  0  0  0  0  0  0
   -3.6082    6.0002    0.0000 N   0  0  0  0  0  0  0  0  0  0  0  0
   -2.3083    5.2500    0.0000 C   0  0  0  0  0  0  0  0  0  0  0  0
   -1.0093    6.0000    0.0000 N   0  0  0  0  0  0  0  0  0  0  0  0
   -1.0093    7.5000    0.0000 C   0  0  0  0  0  0  0  0  0  0  0  0
   -2.3089    8.2506    0.0000 C   0  0  0  0  0  0  0  0  0  0  0  0
   -2.3096    9.7515    0.0000 C   0  0  0  0  0  0  0  0  0  0  0  0
   -1.0107   10.5017    0.0000 C   0  0  0  0  0  0  0  0  0  0  0  0
   -1.0107   12.0017    0.0000 C   0  0  0  0  0  0  0  0  0  0  0  0
    0.2889    9.7510    0.0000 C   0  0  0  0  0  0  0  0  0  0  0  0
    0.2896    8.2502    0.0000 C   0  0  0  0  0  0  0  0  0  0  0  0
    1.5878   10.5012    0.0000 S   0  0  0  0  0  0  0  0  0  0  0  0
    1.5876   12.0012    0.0000 N   0  0  0  0  0  0  0  0  0  0  0  0
    2.1011    9.0918    0.0000 O   0  0  0  0  0  0  0  0  0  0  0  0
    3.0650   10.7620    0.0000 O   0  0  0  0  0  0  0  0  0  0  0  0
   -2.3086    3.7500    0.0000 N   0  0  0  0  0  0  0  0  0  0  0  0
  1  2  1  0  0  0  0 
  2  3  1  0  0  0  0 
  3  4  2  0  0  0  0 
  4  5  1  0  0  0  0 
  5  6  2  0  0  0  0 
  6  7  1  0  0  0  0 
  7  8  1  0  0  0  0 
  7  9  1  0  0  0  0 
  9 10  1  0  0  0  0 
  9 11  2  0  0  0  0 
  5 11  1  0  0  0  0 
 11 12  1  0  0  0  0 
 12 13  2  0  0  0  0 
  3 13  1  0  0  0  0 
  2 14  1  0  0  0  0 
 14 15  2  0  0  0  0 
 15 16  1  0  0  0  0 
 16 17  2  0  0  0  0 
 17 18  1  0  0  0  0 
 18 19  1  0  0  0  0 
 19 20  1  0  0  0  0 
 20 21  2  0  0  0  0 
 21 22  1  0  0  0  0 
 22 23  2  0  0  0  0 
 23 24  1  0  0  0  0 
 23 25  1  0  0  0  0 
 25 26  2  0  0  0  0 
 20 26  1  0  0  0  0 
 25 27  1  0  0  0  0 
 27 28  1  0  0  0  0 
 27 29  2  0  0  0  0 
 27 30  2  0  0  0  0 
 18 31  2  0  0  0  0 
 14 31  1  0  0  0  0 
M  END
> <SMILES>
CN(C1=CC2=NN(C)C(C)=C2C=C1)C1=CC=NC(NC2=CC=C(C)C(=C2)S(N)(=O)=O)=N1

$$$$

  CDK     06141809482D

 28 30  0  0  0  0  0  0  0  0999 V2000
    9.9071    9.5005    0.0000 H   0  0  0  0  0  0  0  0  0  0  0  0
    8.9047   10.6164    0.0000 C   0  0  0  0  0  0  0  0  0  0  0  0
    7.4371   10.3064    0.0000 C   0  0  0  0  0  0  0  0  0  0  0  0
    6.4348   11.4223    0.0000 H   0  0  0  0  0  0  0  0  0  0  0  0
    6.9718    8.8803    0.0000 C   0  0  0  0  0  0  0  0  0  0  0  0
    5.5504    8.5983    0.0000 C   0  0  0  0  0  0  0  0  0  0  0  0
    5.0362    7.2105    0.0000 C   0  0  0  0  0  0  0  0  0  0  0  0
    6.0510    6.1082    0.0000 C   0  0  0  0  0  0  0  0  0  0  0  0
    5.5858    4.6822    0.0000 C   0  0  0  0  0  0  0  0  0  0  0  0
    4.1182    4.3721    0.0000 N   0  0  0  0  0  0  0  0  0  0  0  0
    3.6529    2.9461    0.0000 C   0  0  0  0  0  0  0  0  0  0  0  0
    2.1853    2.6360    0.0000 C   0  0  0  0  0  0  0  0  0  0  0  0
    1.7200    1.2100    0.0000 C   0  0  0  0  0  0  0  0  0  0  0  0
    2.6000   -0.0000    0.0000 C   0  0  0  0  0  0  0  0  0  0  0  0
    4.1000   -0.0000    0.0000 C   0  0  0  0  0  0  0  0  0  0  0  0
    1.7200   -1.2100    0.0000 N   0  0  0  0  0  0  0  0  0  0  0  0
    0.2900   -0.7500    0.0000 C   0  0  0  0  0  0  0  0  0  0  0  0
   -1.0100   -1.5000    0.0000 C   0  0  0  0  0  0  0  0  0  0  0  0
   -2.3100   -0.7500    0.0000 C   0  0  0  0  0  0  0  0  0  0  0  0
   -2.3100    0.7500    0.0000 C   0  0  0  0  0  0  0  0  0  0  0  0
   -1.0100    1.5000    0.0000 C   0  0  0  0  0  0  0  0  0  0  0  0
    0.2900    0.7500    0.0000 C   0  0  0  0  0  0  0  0  0  0  0  0
    7.4725    6.3902    0.0000 C   0  0  0  0  0  0  0  0  0  0  0  0
    7.9867    7.7781    0.0000 C   0  0  0  0  0  0  0  0  0  0  0  0
    9.3700   12.0424    0.0000 C   0  0  0  0  0  0  0  0  0  0  0  0
    8.3677   13.1584    0.0000 O   0  0  0  0  0  0  0  0  0  0  0  0
   10.8376   12.3525    0.0000 N   0  0  0  0  0  0  0  0  0  0  0  0
   11.3029   13.7785    0.0000 O   0  0  0  0  0  0  0  0  0  0  0  0
  1  2  1  4  0  0  0 
  2  3  2  0  0  0  0 
  3  4  1  0  0  0  0 
  3  5  1  0  0  0  0 
  5  6  2  0  0  0  0 
  6  7  1  0  0  0  0 
  7  8  2  0  0  0  0 
  8  9  1  0  0  0  0 
  9 10  1  0  0  0  0 
 10 11  1  0  0  0  0 
 11 12  1  0  0  0  0 
 12 13  1  0  0  0  0 
 13 14  2  0  0  0  0 
 14 15  1  0  0  0  0 
 14 16  1  0  0  0  0 
 16 17  1  0  0  0  0 
 17 18  2  0  0  0  0 
 18 19  1  0  0  0  0 
 19 20  2  0  0  0  0 
 20 21  1  0  0  0  0 
 21 22  2  0  0  0  0 
 13 22  1  0  0  0  0 
 17 22  1  0  0  0  0 
  8 23  1  0  0  0  0 
 23 24  2  0  0  0  0 
  5 24  1  0  0  0  0 
  2 25  1  0  0  0  0 
 25 26  1  4  0  0  0 
 25 27  2  0  0  0  0 
 27 28  1  0  0  0  0 
M  END
> <SMILES>
[H]C(=C([H])C1=CC=C(CNCCC2=C(C)NC3=CC=CC=C23)C=C1)C(O)=NO

$$$$

  CDK     06141809482D

 34 38  0  0  0  0  0  0  0  0999 V2000
    5.0506    7.2253    0.0000 C   0  0  0  0  0  0  0  0  0  0  0  0
    3.5830    6.9152    0.0000 O   0  0  0  0  0  0  0  0  0  0  0  0
    3.1177    5.4892    0.0000 C   0  0  0  0  0  0  0  0  0  0  0  0
    1.6494    5.1787    0.0000 C   0  0  0  0  0  0  0  0  0  0  0  0
    1.1831    3.7521    0.0000 C   0  0  0  0  0  0  0  0  0  0  0  0
    2.1853    2.6360    0.0000 C   0  0  0  0  0  0  0  0  0  0  0  0
    3.6536    2.9465    0.0000 C   0  0  0  0  0  0  0  0  0  0  0  0
    4.1199    4.3731    0.0000 C   0  0  0  0  0  0  0  0  0  0  0  0
    1.7200    1.2100    0.0000 N   0  0  0  0  0  0  0  0  0  0  0  0
    2.6000    0.0000    0.0000 N   0  0  0  0  0  0  0  0  0  0  0  0
    1.7200   -1.2100    0.0000 C   0  0  0  0  0  0  0  0  0  0  0  0
    2.1853   -2.6360    0.0000 C   0  0  0  0  0  0  0  0  0  0  0  0
    1.1830   -3.7520    0.0000 N   0  0  0  0  0  0  0  0  0  0  0  0
    3.6529   -2.9461    0.0000 O   0  0  0  0  0  0  0  0  0  0  0  0
    0.2900   -0.7500    0.0000 C   0  0  0  0  0  0  0  0  0  0  0  0
    0.2900    0.7500    0.0000 C   0  0  0  0  0  0  0  0  0  0  0  0
   -1.0100    1.5000    0.0000 C   0  0  0  0  0  0  0  0  0  0  0  0
   -1.0100    3.0000    0.0000 O   0  0  0  0  0  0  0  0  0  0  0  0
   -2.3100    0.7500    0.0000 N   0  0  0  0  0  0  0  0  0  0  0  0
   -2.3100   -0.7500    0.0000 C   0  0  0  0  0  0  0  0  0  0  0  0
   -1.0100   -1.5000    0.0000 C   0  0  0  0  0  0  0  0  0  0  0  0
   -3.6089    1.5002    0.0000 C   0  0  0  0  0  0  0  0  0  0  0  0
   -3.5996    2.9874    0.0000 C   0  0  0  0  0  0  0  0  0  0  0  0
   -4.9148    3.7296    0.0000 C   0  0  0  0  0  0  0  0  0  0  0  0
   -6.2082    2.9782    0.0000 C   0  0  0  0  0  0  0  0  0  0  0  0
   -6.1916    1.4760    0.0000 C   0  0  0  0  0  0  0  0  0  0  0  0
   -4.9074    0.7402    0.0000 C   0  0  0  0  0  0  0  0  0  0  0  0
   -7.5124    3.7193    0.0000 N   0  0  0  0  0  0  0  0  0  0  0  0
   -8.8067    2.9596    0.0000 C   0  0  0  0  0  0  0  0  0  0  0  0
  -10.1109    3.7007    0.0000 C   0  0  0  0  0  0  0  0  0  0  0  0
  -10.1207    5.2015    0.0000 C   0  0  0  0  0  0  0  0  0  0  0  0
   -8.8263    5.9612    0.0000 C   0  0  0  0  0  0  0  0  0  0  0  0
   -7.5222    5.2201    0.0000 C   0  0  0  0  0  0  0  0  0  0  0  0
   -6.2282    5.9788    0.0000 O   0  0  0  0  0  0  0  0  0  0  0  0
  1  2  1  0  0  0  0 
  2  3  1  0  0  0  0 
  3  4  2  0  0  0  0 
  4  5  1  0  0  0  0 
  5  6  2  0  0  0  0 
  6  7  1  0  0  0  0 
  7  8  2  0  0  0  0 
  3  8  1  0  0  0  0 
  6  9  1  0  0  0  0 
  9 10  1  0  0  0  0 
 10 11  2  0  0  0  0 
 11 12  1  0  0  0  0 
 12 13  1  0  0  0  0 
 12 14  2  0  0  0  0 
 11 15  1  0  0  0  0 
 15 16  2  0  0  0  0 
  9 16  1  0  0  0  0 
 16 17  1  0  0  0  0 
 17 18  2  0  0  0  0 
 17 19  1  0  0  0  0 
 19 20  1  0  0  0  0 
 20 21  1  0  0  0  0 
 15 21  1  0  0  0  0 
 19 22  1  0  0  0  0 
 22 23  2  0  0  0  0 
 23 24  1  0  0  0  0 
 24 25  2  0  0  0  0 
 25 26  1  0  0  0  0 
 26 27  2  0  0  0  0 
 22 27  1  0  0  0  0 
 25 28  1  0  0  0  0 
 28 29  1  0  0  0  0 
 29 30  1  0  0  0  0 
 30 31  1  0  0  0  0 
 31 32  1  0  0  0  0 
 32 33  1  0  0  0  0 
 28 33  1  0  0  0  0 
 33 34  2  0  0  0  0 
M  END
> <SMILES>
COC1=CC=C(C=C1)N1N=C(C(N)=O)C2=C1C(=O)N(CC2)C1=CC=C(C=C1)N1CCCCC1=O

$$$$

  CDK     06141809482D

 30 33  0  0  0  0  0  0  0  0999 V2000
   -8.4025   -3.7504    0.0000 H   0  0  0  0  0  0  0  0  0  0  0  0
   -9.4044   -2.6342    0.0000 C   0  0  0  0  0  0  0  0  0  0  0  0
  -10.8721   -2.9438    0.0000 C   0  0  0  0  0  0  0  0  0  0  0  0
  -11.8741   -1.8275    0.0000 H   0  0  0  0  0  0  0  0  0  0  0  0
  -11.3379   -4.3696    0.0000 C   0  0  0  0  0  0  0  0  0  0  0  0
  -12.8055   -4.6794    0.0000 C   0  0  0  0  0  0  0  0  0  0  0  0
  -13.2708   -6.1063    0.0000 C   0  0  0  0  0  0  0  0  0  0  0  0
  -12.2685   -7.2234    0.0000 C   0  0  0  0  0  0  0  0  0  0  0  0
  -10.8008   -6.9135    0.0000 C   0  0  0  0  0  0  0  0  0  0  0  0
  -10.3355   -5.4867    0.0000 N   0  0  0  0  0  0  0  0  0  0  0  0
   -8.9387   -1.2083    0.0000 C   0  0  0  0  0  0  0  0  0  0  0  0
   -7.5086   -0.7488    0.0000 C   0  0  0  0  0  0  0  0  0  0  0  0
   -6.2088   -1.4992    0.0000 C   0  0  0  0  0  0  0  0  0  0  0  0
   -4.9086   -0.7496    0.0000 C   0  0  0  0  0  0  0  0  0  0  0  0
   -4.9081    0.7504    0.0000 C   0  0  0  0  0  0  0  0  0  0  0  0
   -3.6089    1.5002    0.0000 S   0  0  0  0  0  0  0  0  0  0  0  0
   -3.6087    3.0002    0.0000 C   0  0  0  0  0  0  0  0  0  0  0  0
   -4.9075    3.7506    0.0000 C   0  0  0  0  0  0  0  0  0  0  0  0
   -4.9065    5.2515    0.0000 C   0  0  0  0  0  0  0  0  0  0  0  0
   -3.6118    5.9932    0.0000 C   0  0  0  0  0  0  0  0  0  0  0  0
   -2.3130    5.2428    0.0000 C   0  0  0  0  0  0  0  0  0  0  0  0
   -2.3089    3.7506    0.0000 C   0  0  0  0  0  0  0  0  0  0  0  0
   -1.0089    3.0024    0.0000 C   0  0  0  0  0  0  0  0  0  0  0  0
   -1.0068    1.5024    0.0000 O   0  0  0  0  0  0  0  0  0  0  0  0
    0.2892    3.7541    0.0000 N   0  0  0  0  0  0  0  0  0  0  0  0
    0.2871    5.2541    0.0000 C   0  0  0  0  0  0  0  0  0  0  0  0
   -6.2078    1.5008    0.0000 C   0  0  0  0  0  0  0  0  0  0  0  0
   -7.5081    0.7512    0.0000 C   0  0  0  0  0  0  0  0  0  0  0  0
   -8.9379    1.2117    0.0000 N   0  0  0  0  0  0  0  0  0  0  0  0
   -9.8183    0.0020    0.0000 N   0  0  0  0  0  0  0  0  0  0  0  0
  1  2  1  4  0  0  0 
  2  3  2  0  0  0  0 
  3  4  1  0  0  0  0 
  3  5  1  0  0  0  0 
  5  6  2  0  0  0  0 
  6  7  1  0  0  0  0 
  7  8  2  0  0  0  0 
  8  9  1  0  0  0  0 
  9 10  2  0  0  0  0 
  5 10  1  0  0  0  0 
  2 11  1  0  0  0  0 
 11 12  2  0  0  0  0 
 12 13  1  0  0  0  0 
 13 14  2  0  0  0  0 
 14 15  1  0  0  0  0 
 15 16  1  0  0  0  0 
 16 17  1  0  0  0  0 
 17 18  2  0  0  0  0 
 18 19  1  0  0  0  0 
 19 20  2  0  0  0  0 
 20 21  1  0  0  0  0 
 21 22  2  0  0  0  0 
 17 22  1  0  0  0  0 
 22 23  1  0  0  0  0 
 23 24  1  4  0  0  0 
 23 25  2  0  0  0  0 
 25 26  1  0  0  0  0 
 15 27  2  0  0  0  0 
 27 28  1  0  0  0  0 
 12 28  1  0  0  0  0 
 28 29  2  0  0  0  0 
 29 30  1  0  0  0  0 
 11 30  1  0  0  0  0 
M  END
> <SMILES>
[H]C(=C([H])C1=CC=CC=N1)C1=C2C=CC(SC3=CC=CC=C3C(O)=NC)=CC2=NN1

$$$$

  CDK     06141809482D

 53 57  0  0  1  0  0  0  0  0999 V2000
    6.6629   -0.1938    0.0000 H   0  0  0  0  0  0  0  0  0  0  0  0
    7.8407   -1.1226    0.0000 C   0  0  0  0  0  0  0  0  0  0  0  0
    8.5509    0.1986    0.0000 C   0  0  0  0  0  0  0  0  0  0  0  0
    6.7214   -2.1213    0.0000 O   0  0  0  0  0  0  0  0  0  0  0  0
    5.2970   -1.6513    0.0000 C   0  0  0  0  0  0  0  0  0  0  0  0
    4.9918   -0.1826    0.0000 O   0  0  0  0  0  0  0  0  0  0  0  0
    4.1777   -2.6499    0.0000 N   0  0  0  0  0  0  0  0  0  0  0  0
    2.7532   -2.1799    0.0000 C   0  0  0  0  0  0  0  0  0  0  0  0
    4.4829   -4.1185    0.0000 C   0  0  0  0  0  0  0  0  0  0  0  0
    3.3638   -5.1173    0.0000 C   0  0  0  0  0  0  0  0  0  0  0  0
    1.9392   -4.6478    0.0000 C   0  0  0  0  0  0  0  0  0  0  0  0
    0.8203   -5.6468    0.0000 O   0  0  0  0  0  0  0  0  0  0  0  0
   -0.6044   -5.1772    0.0000 C   0  0  0  0  0  0  0  0  0  0  0  0
   -0.9100   -3.7087    0.0000 O   0  0  0  0  0  0  0  0  0  0  0  0
   -1.7233   -6.1762    0.0000 C   0  0  0  0  0  0  0  0  0  0  0  0
   -3.1479   -5.7067    0.0000 N   0  0  0  0  0  0  0  0  0  0  0  0
   -4.2668   -6.7057    0.0000 C   0  0  0  0  0  0  0  0  0  0  0  0
    3.6699   -6.5866    0.0000 C   0  0  0  0  0  0  0  0  0  0  0  0
    5.0951   -7.0571    0.0000 C   0  0  0  0  0  0  0  0  0  0  0  0
    6.2142   -6.0583    0.0000 C   0  0  0  0  0  0  0  0  0  0  0  0
    5.9081   -4.5890    0.0000 N   0  0  0  0  0  0  0  0  0  0  0  0
    9.2652   -1.5926    0.0000 N   0  0  0  0  0  0  0  0  0  0  0  0
   10.4831   -0.7170    0.0000 C   0  0  0  0  0  0  0  0  0  0  0  0
   11.6855   -1.6014    0.0000 N   0  0  0  0  0  0  0  0  0  0  0  0
   13.1132   -1.1414    0.0000 C   0  0  0  0  0  0  0  0  0  0  0  0
   14.2254   -2.1479    0.0000 C   0  0  2  0  0  0  0  0  0  0  0  0
   15.6148   -2.7133    0.0000 O   0  0  0  0  0  0  0  0  0  0  0  0
   15.0235   -0.8778    0.0000 C   0  0  0  0  0  0  0  0  0  0  0  0
   14.3224    0.4492    0.0000 C   0  0  0  0  0  0  0  0  0  0  0  0
   12.8234    0.5050    0.0000 F   0  0  0  0  0  0  0  0  0  0  0  0
   15.1203    1.7204    0.0000 C   0  0  0  0  0  0  0  0  0  0  0  0
   16.6192    1.6645    0.0000 C   0  0  0  0  0  0  0  0  0  0  0  0
   17.3203    0.3375    0.0000 C   0  0  0  0  0  0  0  0  0  0  0  0
   18.8193    0.2817    0.0000 F   0  0  0  0  0  0  0  0  0  0  0  0
   16.5224   -0.9337    0.0000 C   0  0  0  0  0  0  0  0  0  0  0  0
   13.9099   -3.6144    0.0000 C   0  0  1  0  0  0  0  0  0  0  0  0
   12.5205   -3.0490    0.0000 H   0  0  0  0  0  0  0  0  0  0  0  0
   15.0221   -4.6208    0.0000 C   0  0  0  0  0  0  0  0  0  0  0  0
   13.1119   -4.8844    0.0000 C   0  0  0  0  0  0  0  0  0  0  0  0
   11.6223   -4.9798    0.0000 N   0  0  0  0  0  0  0  0  0  0  0  0
   11.2521   -6.4335    0.0000 C   0  0  0  0  0  0  0  0  0  0  0  0
   12.5147   -7.2296    0.0000 C   0  0  0  0  0  0  0  0  0  0  0  0
   13.6758   -6.2766    0.0000 S   0  0  0  0  0  0  0  0  0  0  0  0
    9.8588   -6.9890    0.0000 C   0  0  0  0  0  0  0  0  0  0  0  0
    8.7321   -6.0777    0.0000 C   0  0  0  0  0  0  0  0  0  0  0  0
    7.3368   -6.5713    0.0000 C   0  0  0  0  0  0  0  0  0  0  0  0
    7.1398   -8.0566    0.0000 C   0  0  0  0  0  0  0  0  0  0  0  0
    8.2666   -8.9679    0.0000 C   0  0  0  0  0  0  0  0  0  0  0  0
    9.6619   -8.4744    0.0000 C   0  0  0  0  0  0  0  0  0  0  0  0
    5.7465   -8.6122    0.0000 C   0  0  0  0  0  0  0  0  0  0  0  0
    4.3532   -9.1678    0.0000 N   0  0  0  0  0  0  0  0  0  0  0  0
   11.2226   -3.0304    0.0000 N   0  0  0  0  0  0  0  0  0  0  0  0
    9.7206   -3.0141    0.0000 C   0  0  0  0  0  0  0  0  0  0  0  0
  1  2  1  0  0  0  0 
  2  3  1  0  0  0  0 
  2  4  1  0  0  0  0 
  4  5  1  0  0  0  0 
  5  6  2  0  0  0  0 
  5  7  1  0  0  0  0 
  7  8  1  0  0  0  0 
  7  9  1  0  0  0  0 
  9 10  2  0  0  0  0 
 10 11  1  0  0  0  0 
 11 12  1  0  0  0  0 
 12 13  1  0  0  0  0 
 13 14  2  0  0  0  0 
 13 15  1  0  0  0  0 
 15 16  1  0  0  0  0 
 16 17  1  0  0  0  0 
 10 18  1  0  0  0  0 
 18 19  2  0  0  0  0 
 19 20  1  0  0  0  0 
 20 21  2  0  0  0  0 
  9 21  1  0  0  0  0 
  2 22  1  0  0  0  0 
 22 23  2  0  0  0  0 
 23 24  1  0  0  0  0 
 24 25  1  0  0  0  0 
 25 26  1  0  0  0  0 
 26 27  1  1  0  0  0 
 26 28  1  6  0  0  0 
 28 29  2  0  0  0  0 
 29 30  1  0  0  0  0 
 29 31  1  0  0  0  0 
 31 32  2  0  0  0  0 
 32 33  1  0  0  0  0 
 33 34  1  0  0  0  0 
 33 35  2  0  0  0  0 
 28 35  1  0  0  0  0 
 26 36  1  0  0  0  0 
 36 37  1  6  0  0  0 
 36 38  1  0  0  0  0 
 36 39  1  1  0  0  0 
 39 40  2  0  0  0  0 
 40 41  1  0  0  0  0 
 41 42  2  0  0  0  0 
 42 43  1  0  0  0  0 
 39 43  1  0  0  0  0 
 41 44  1  0  0  0  0 
 44 45  2  0  0  0  0 
 45 46  1  0  0  0  0 
 46 47  2  0  0  0  0 
 47 48  1  0  0  0  0 
 48 49  2  0  0  0  0 
 44 49  1  0  0  0  0 
 47 50  1  0  0  0  0 
 50 51  3  0  0  0  0 
 24 52  1  0  0  0  0 
 52 53  2  0  0  0  0 
 22 53  1  0  0  0  0 
M  CHG  1  22   1
M  END
> <SMILES>
[H]C(C)(OC(=O)N(C)C1=C(COC(=O)CNC)C=CC=N1)[N+]1=CN(C[C@](O)(C2=C(F)C=CC(F)=C2)[C@@]([H])(C)C2=NC(=CS2)C2=CC=C(C=C2)C#N)N=C1

$$$$

  CDK     06141809482D

 46 49  0  0  0  0  0  0  0  0999 V2000
   20.6017   -7.7928    0.0000 C   0  0  0  0  0  0  0  0  0  0  0  0
   19.8517   -6.4937    0.0000 C   0  0  0  0  0  0  0  0  0  0  0  0
   18.3517   -6.4937    0.0000 C   0  0  0  0  0  0  0  0  0  0  0  0
   17.6017   -5.1947    0.0000 C   0  0  0  0  0  0  0  0  0  0  0  0
   16.1017   -5.1947    0.0000 C   0  0  0  0  0  0  0  0  0  0  0  0
   15.3517   -3.8957    0.0000 C   0  0  0  0  0  0  0  0  0  0  0  0
   13.8517   -3.8957    0.0000 O   0  0  0  0  0  0  0  0  0  0  0  0
   13.1017   -2.5966    0.0000 C   0  0  0  0  0  0  0  0  0  0  0  0
   13.8517   -1.2976    0.0000 O   0  0  0  0  0  0  0  0  0  0  0  0
   11.6017   -2.5966    0.0000 N   0  0  0  0  0  0  0  0  0  0  0  0
   10.8517   -1.2976    0.0000 C   0  0  0  0  0  0  0  0  0  0  0  0
   11.6017    0.0014    0.0000 N   0  0  0  0  0  0  0  0  0  0  0  0
    9.3517   -1.2976    0.0000 C   0  0  0  0  0  0  0  0  0  0  0  0
    8.6015    0.0013    0.0000 C   0  0  0  0  0  0  0  0  0  0  0  0
    7.1006    0.0006    0.0000 C   0  0  0  0  0  0  0  0  0  0  0  0
    6.3500   -1.2990    0.0000 C   0  0  0  0  0  0  0  0  0  0  0  0
    4.8500   -1.2990    0.0000 N   0  0  0  0  0  0  0  0  0  0  0  0
    4.1000   -0.0000    0.0000 C   0  0  0  0  0  0  0  0  0  0  0  0
    2.6000    0.0000    0.0000 C   0  0  0  0  0  0  0  0  0  0  0  0
    1.7200   -1.2100    0.0000 N   0  0  0  0  0  0  0  0  0  0  0  0
    0.2900   -0.7500    0.0000 C   0  0  0  0  0  0  0  0  0  0  0  0
    0.2900    0.7500    0.0000 C   0  0  0  0  0  0  0  0  0  0  0  0
   -1.0100    1.5000    0.0000 C   0  0  0  0  0  0  0  0  0  0  0  0
   -2.3100    0.7500    0.0000 C   0  0  0  0  0  0  0  0  0  0  0  0
   -2.3100   -0.7500    0.0000 C   0  0  0  0  0  0  0  0  0  0  0  0
   -1.0100   -1.5000    0.0000 C   0  0  0  0  0  0  0  0  0  0  0  0
   -3.6089   -1.5002    0.0000 C   0  0  0  0  0  0  0  0  0  0  0  0
   -3.6087   -3.0002    0.0000 O   0  0  0  0  0  0  0  0  0  0  0  0
   -4.9081   -0.7504    0.0000 N   0  0  0  0  0  0  0  0  0  0  0  0
   -6.2070   -1.5006    0.0000 C   0  0  0  0  0  0  0  0  0  0  0  0
   -7.5062   -0.7508    0.0000 C   0  0  0  0  0  0  0  0  0  0  0  0
   -8.8051   -1.5010    0.0000 C   0  0  0  0  0  0  0  0  0  0  0  0
   -8.8048   -3.0010    0.0000 O   0  0  0  0  0  0  0  0  0  0  0  0
  -10.1042   -0.7512    0.0000 O   0  0  0  0  0  0  0  0  0  0  0  0
  -11.4031   -1.5015    0.0000 C   0  0  0  0  0  0  0  0  0  0  0  0
  -12.7023   -0.7517    0.0000 C   0  0  0  0  0  0  0  0  0  0  0  0
   -4.9083    0.7496    0.0000 C   0  0  0  0  0  0  0  0  0  0  0  0
   -6.2074    1.4996    0.0000 C   0  0  0  0  0  0  0  0  0  0  0  0
   -6.2069    3.0004    0.0000 C   0  0  0  0  0  0  0  0  0  0  0  0
   -4.9074    3.7512    0.0000 C   0  0  0  0  0  0  0  0  0  0  0  0
   -3.6083    3.0012    0.0000 C   0  0  0  0  0  0  0  0  0  0  0  0
   -3.6088    1.5004    0.0000 N   0  0  0  0  0  0  0  0  0  0  0  0
    1.7200    1.2100    0.0000 N   0  0  0  0  0  0  0  0  0  0  0  0
    2.1853    2.6360    0.0000 C   0  0  0  0  0  0  0  0  0  0  0  0
    7.1002   -2.5980    0.0000 C   0  0  0  0  0  0  0  0  0  0  0  0
    8.6010   -2.5972    0.0000 C   0  0  0  0  0  0  0  0  0  0  0  0
  1  2  1  0  0  0  0 
  2  3  1  0  0  0  0 
  3  4  1  0  0  0  0 
  4  5  1  0  0  0  0 
  5  6  1  0  0  0  0 
  6  7  1  0  0  0  0 
  7  8  1  0  0  0  0 
  8  9  2  0  0  0  0 
  8 10  1  0  0  0  0 
 10 11  2  0  0  0  0 
 11 12  1  4  0  0  0 
 11 13  1  0  0  0  0 
 13 14  2  0  0  0  0 
 14 15  1  0  0  0  0 
 15 16  2  0  0  0  0 
 16 17  1  0  0  0  0 
 17 18  1  0  0  0  0 
 18 19  1  0  0  0  0 
 19 20  2  0  0  0  0 
 20 21  1  0  0  0  0 
 21 22  2  0  0  0  0 
 22 23  1  0  0  0  0 
 23 24  2  0  0  0  0 
 24 25  1  0  0  0  0 
 25 26  2  0  0  0  0 
 21 26  1  0  0  0  0 
 25 27  1  0  0  0  0 
 27 28  2  0  0  0  0 
 27 29  1  0  0  0  0 
 29 30  1  0  0  0  0 
 30 31  1  0  0  0  0 
 31 32  1  0  0  0  0 
 32 33  2  0  0  0  0 
 32 34  1  0  0  0  0 
 34 35  1  0  0  0  0 
 35 36  1  0  0  0  0 
 29 37  1  0  0  0  0 
 37 38  2  0  0  0  0 
 38 39  1  0  0  0  0 
 39 40  2  0  0  0  0 
 40 41  1  0  0  0  0 
 41 42  2  0  0  0  0 
 37 42  1  0  0  0  0 
 22 43  1  0  0  0  0 
 19 43  1  0  0  0  0 
 43 44  1  0  0  0  0 
 16 45  1  0  0  0  0 
 45 46  2  0  0  0  0 
 13 46  1  0  0  0  0 
M  END
> <SMILES>
CCCCCCOC(=O)N=C(N)C1=CC=C(NCC2=NC3=C(C=CC(=C3)C(=O)N(CCC(=O)OCC)C3=CC=CC=N3)N2C)C=C1

$$$$

  CDK     06141809482D

 30 31  0  0  1  0  0  0  0  0999 V2000
   -3.8971    7.8200    0.0000 C   0  0  0  0  0  0  0  0  0  0  0  0
   -2.5981    7.0700    0.0000 C   0  0  0  0  0  0  0  0  0  0  0  0
   -1.2990    7.8200    0.0000 C   0  0  0  0  0  0  0  0  0  0  0  0
   -2.5981    5.5700    0.0000 N   0  0  0  0  0  0  0  0  0  0  0  0
   -1.2990    4.8200    0.0000 C   0  0  0  0  0  0  0  0  0  0  0  0
   -1.2990    3.3200    0.0000 C   0  0  0  0  0  0  0  0  0  0  0  0
    0.0000    2.5700    0.0000 C   0  0  2  0  0  0  0  0  0  0  0  0
    0.0000    1.0700    0.0000 C   0  0  0  0  0  0  0  0  0  0  0  0
    1.3000    0.3200    0.0000 C   0  0  0  0  0  0  0  0  0  0  0  0
    1.3000   -1.1800    0.0000 C   0  0  0  0  0  0  0  0  0  0  0  0
    0.0000   -1.9300    0.0000 C   0  0  0  0  0  0  0  0  0  0  0  0
   -1.3000   -1.1800    0.0000 C   0  0  0  0  0  0  0  0  0  0  0  0
   -1.3000    0.3200    0.0000 C   0  0  0  0  0  0  0  0  0  0  0  0
    1.2990    3.3200    0.0000 C   0  0  0  0  0  0  0  0  0  0  0  0
    2.5986    2.5692    0.0000 C   0  0  0  0  0  0  0  0  0  0  0  0
    2.5983    1.0692    0.0000 O   0  0  0  0  0  0  0  0  0  0  0  0
    3.8972    0.3190    0.0000 C   0  0  0  0  0  0  0  0  0  0  0  0
    5.1964    1.0688    0.0000 O   0  0  0  0  0  0  0  0  0  0  0  0
    3.8970   -1.1810    0.0000 C   0  0  0  0  0  0  0  0  0  0  0  0
    5.1959   -1.9312    0.0000 C   0  0  0  0  0  0  0  0  0  0  0  0
    2.5978   -1.9308    0.0000 C   0  0  0  0  0  0  0  0  0  0  0  0
    3.8976    3.3192    0.0000 C   0  0  0  0  0  0  0  0  0  0  0  0
    3.8971    4.8200    0.0000 C   0  0  0  0  0  0  0  0  0  0  0  0
    2.5976    5.5708    0.0000 C   0  0  0  0  0  0  0  0  0  0  0  0
    2.5978    7.0708    0.0000 C   0  0  0  0  0  0  0  0  0  0  0  0
    3.8970    7.8206    0.0000 O   0  0  0  0  0  0  0  0  0  0  0  0
    1.2986    4.8208    0.0000 C   0  0  0  0  0  0  0  0  0  0  0  0
   -3.8971    4.8200    0.0000 C   0  0  0  0  0  0  0  0  0  0  0  0
   -5.1962    5.5700    0.0000 C   0  0  0  0  0  0  0  0  0  0  0  0
   -3.8971    3.3200    0.0000 C   0  0  0  0  0  0  0  0  0  0  0  0
  1  2  1  0  0  0  0 
  2  3  1  0  0  0  0 
  2  4  1  0  0  0  0 
  4  5  1  0  0  0  0 
  5  6  1  0  0  0  0 
  7  6  1  1  0  0  0 
  7  8  1  0  0  0  0 
  8  9  2  0  0  0  0 
  9 10  1  0  0  0  0 
 10 11  2  0  0  0  0 
 11 12  1  0  0  0  0 
 12 13  2  0  0  0  0 
  8 13  1  0  0  0  0 
  7 14  1  0  0  0  0 
 14 15  2  0  0  0  0 
 15 16  1  0  0  0  0 
 16 17  1  0  0  0  0 
 17 18  2  0  0  0  0 
 17 19  1  0  0  0  0 
 19 20  1  0  0  0  0 
 19 21  1  0  0  0  0 
 15 22  1  0  0  0  0 
 22 23  2  0  0  0  0 
 23 24  1  0  0  0  0 
 24 25  1  0  0  0  0 
 25 26  1  0  0  0  0 
 24 27  2  0  0  0  0 
 14 27  1  0  0  0  0 
  4 28  1  0  0  0  0 
 28 29  1  0  0  0  0 
 28 30  1  0  0  0  0 
M  END
> <SMILES>
CC(C)N(CC[C@H](C1=CC=CC=C1)C1=C(OC(=O)C(C)C)C=CC(CO)=C1)C(C)C

$$$$

  CDK     06141809482D

 29 31  0  0  0  0  0  0  0  0999 V2000
    5.1983    5.2508    0.0000 C   0  0  0  0  0  0  0  0  0  0  0  0
    5.1981    3.7508    0.0000 C   0  0  0  0  0  0  0  0  0  0  0  0
    3.7209    4.0115    0.0000 C   0  0  0  0  0  0  0  0  0  0  0  0
    4.6848    2.3414    0.0000 C   0  0  0  0  0  0  0  0  0  0  0  0
    6.4970    3.0006    0.0000 C   0  0  0  0  0  0  0  0  0  0  0  0
    7.7970    3.7506    0.0000 C   0  0  0  0  0  0  0  0  0  0  0  0
    9.0970    3.0006    0.0000 C   0  0  0  0  0  0  0  0  0  0  0  0
    9.0970    1.5006    0.0000 C   0  0  0  0  0  0  0  0  0  0  0  0
   10.3959    0.7504    0.0000 O   0  0  0  0  0  0  0  0  0  0  0  0
    7.7970    0.7506    0.0000 C   0  0  0  0  0  0  0  0  0  0  0  0
    6.4970    1.5006    0.0000 C   0  0  0  0  0  0  0  0  0  0  0  0
    5.1981    0.7504    0.0000 N   0  0  0  0  0  0  0  0  0  0  0  0
    3.8989    1.5002    0.0000 C   0  0  0  0  0  0  0  0  0  0  0  0
    3.8987    3.0002    0.0000 O   0  0  0  0  0  0  0  0  0  0  0  0
    2.6000    0.7500    0.0000 C   0  0  0  0  0  0  0  0  0  0  0  0
    2.6000   -0.7500    0.0000 C   0  0  0  0  0  0  0  0  0  0  0  0
    1.3000   -1.5000    0.0000 N   0  0  0  0  0  0  0  0  0  0  0  0
   -0.0000   -0.7500    0.0000 C   0  0  0  0  0  0  0  0  0  0  0  0
   -1.3000   -1.5000    0.0000 C   0  0  0  0  0  0  0  0  0  0  0  0
   -2.6000   -0.7500    0.0000 C   0  0  0  0  0  0  0  0  0  0  0  0
   -2.6000    0.7500    0.0000 C   0  0  0  0  0  0  0  0  0  0  0  0
   -1.3000    1.5000    0.0000 C   0  0  0  0  0  0  0  0  0  0  0  0
   -0.0000    0.7500    0.0000 C   0  0  0  0  0  0  0  0  0  0  0  0
    1.3000    1.5000    0.0000 C   0  0  0  0  0  0  0  0  0  0  0  0
    1.3000    3.0000    0.0000 O   0  0  0  0  0  0  0  0  0  0  0  0
   10.3959    3.7508    0.0000 C   0  0  0  0  0  0  0  0  0  0  0  0
   11.6951    3.0010    0.0000 C   0  0  0  0  0  0  0  0  0  0  0  0
   11.3599    4.9001    0.0000 C   0  0  0  0  0  0  0  0  0  0  0  0
    9.4315    4.8997    0.0000 C   0  0  0  0  0  0  0  0  0  0  0  0
  1  2  1  0  0  0  0 
  2  3  1  0  0  0  0 
  2  4  1  0  0  0  0 
  2  5  1  0  0  0  0 
  5  6  2  0  0  0  0 
  6  7  1  0  0  0  0 
  7  8  2  0  0  0  0 
  8  9  1  0  0  0  0 
  8 10  1  0  0  0  0 
 10 11  2  0  0  0  0 
  5 11  1  0  0  0  0 
 11 12  1  0  0  0  0 
 12 13  1  0  0  0  0 
 13 14  2  0  0  0  0 
 13 15  1  0  0  0  0 
 15 16  2  0  0  0  0 
 16 17  1  0  0  0  0 
 17 18  1  0  0  0  0 
 18 19  2  0  0  0  0 
 19 20  1  0  0  0  0 
 20 21  2  0  0  0  0 
 21 22  1  0  0  0  0 
 22 23  2  0  0  0  0 
 18 23  1  0  0  0  0 
 23 24  1  0  0  0  0 
 15 24  1  0  0  0  0 
 24 25  2  0  0  0  0 
  7 26  1  0  0  0  0 
 26 27  1  0  0  0  0 
 26 28  1  0  0  0  0 
 26 29  1  0  0  0  0 
M  END
> <SMILES>
CC(C)(C)C1=CC(=C(O)C=C1NC(=O)C1=CNC2=CC=CC=C2C1=O)C(C)(C)C

$$$$

  CDK     06141809482D

 50 55  0  0  0  0  0  0  0  0999 V2000
    2.0850    8.0370    0.0000 F   0  0  0  0  0  0  0  0  0  0  0  0
    1.0812    6.9224    0.0000 C   0  0  0  0  0  0  0  0  0  0  0  0
    0.1578    8.1046    0.0000 F   0  0  0  0  0  0  0  0  0  0  0  0
   -0.2434    6.2184    0.0000 F   0  0  0  0  0  0  0  0  0  0  0  0
    1.5444    5.4958    0.0000 C   0  0  0  0  0  0  0  0  0  0  0  0
    0.5406    4.3812    0.0000 N   0  0  0  0  0  0  0  0  0  0  0  0
    1.0039    2.9546    0.0000 C   0  0  0  0  0  0  0  0  0  0  0  0
    2.4710    2.6425    0.0000 O   0  0  0  0  0  0  0  0  0  0  0  0
   -0.0000    1.8400    0.0000 C   0  0  0  0  0  0  0  0  0  0  0  0
   -1.0039    2.9546    0.0000 C   0  0  0  0  0  0  0  0  0  0  0  0
   -2.4710    2.6425    0.0000 C   0  0  0  0  0  0  0  0  0  0  0  0
   -3.4749    3.7570    0.0000 C   0  0  0  0  0  0  0  0  0  0  0  0
   -4.9421    3.4449    0.0000 C   0  0  0  0  0  0  0  0  0  0  0  0
   -5.9460    4.5595    0.0000 N   0  0  0  0  0  0  0  0  0  0  0  0
   -7.4139    4.2467    0.0000 C   0  0  0  0  0  0  0  0  0  0  0  0
   -8.4177    5.3613    0.0000 C   0  0  0  0  0  0  0  0  0  0  0  0
   -7.9537    6.7886    0.0000 C   0  0  0  0  0  0  0  0  0  0  0  0
   -6.4858    7.1013    0.0000 C   0  0  0  0  0  0  0  0  0  0  0  0
   -5.4820    5.9868    0.0000 C   0  0  0  0  0  0  0  0  0  0  0  0
   -8.9576    7.9031    0.0000 N   0  0  0  0  0  0  0  0  0  0  0  0
  -10.4248    7.5910    0.0000 C   0  0  0  0  0  0  0  0  0  0  0  0
  -10.8881    6.1644    0.0000 O   0  0  0  0  0  0  0  0  0  0  0  0
  -11.4286    8.7056    0.0000 C   0  0  0  0  0  0  0  0  0  0  0  0
  -12.8970    8.3953    0.0000 C   0  0  0  0  0  0  0  0  0  0  0  0
  -13.8990    9.5115    0.0000 C   0  0  0  0  0  0  0  0  0  0  0  0
  -13.4326   10.9381    0.0000 C   0  0  0  0  0  0  0  0  0  0  0  0
  -11.9717   11.2417    0.0000 C   0  0  0  0  0  0  0  0  0  0  0  0
  -10.9697   10.1254    0.0000 C   0  0  0  0  0  0  0  0  0  0  0  0
  -13.3625    6.9694    0.0000 C   0  0  0  0  0  0  0  0  0  0  0  0
  -14.7840    6.6875    0.0000 C   0  0  0  0  0  0  0  0  0  0  0  0
  -15.2984    5.2997    0.0000 C   0  0  0  0  0  0  0  0  0  0  0  0
  -14.2837    4.1973    0.0000 C   0  0  0  0  0  0  0  0  0  0  0  0
  -12.8622    4.4792    0.0000 C   0  0  0  0  0  0  0  0  0  0  0  0
  -12.3478    5.8669    0.0000 C   0  0  0  0  0  0  0  0  0  0  0  0
  -14.7491    2.7714    0.0000 C   0  0  0  0  0  0  0  0  0  0  0  0
  -16.2168    2.4615    0.0000 F   0  0  0  0  0  0  0  0  0  0  0  0
  -14.6988    1.2722    0.0000 F   0  0  0  0  0  0  0  0  0  0  0  0
  -13.2640    2.5606    0.0000 F   0  0  0  0  0  0  0  0  0  0  0  0
    1.2100    0.9600    0.0000 C   0  0  0  0  0  0  0  0  0  0  0  0
    2.6800    1.2700    0.0000 C   0  0  0  0  0  0  0  0  0  0  0  0
    3.6900    0.1600    0.0000 C   0  0  0  0  0  0  0  0  0  0  0  0
    3.2200   -1.2700    0.0000 C   0  0  0  0  0  0  0  0  0  0  0  0
    1.7500   -1.5800    0.0000 C   0  0  0  0  0  0  0  0  0  0  0  0
    0.7500   -0.4700    0.0000 C   0  0  0  0  0  0  0  0  0  0  0  0
   -0.7500   -0.4700    0.0000 C   0  0  0  0  0  0  0  0  0  0  0  0
   -1.7500   -1.5800    0.0000 C   0  0  0  0  0  0  0  0  0  0  0  0
   -3.2200   -1.2700    0.0000 C   0  0  0  0  0  0  0  0  0  0  0  0
   -3.6800    0.1600    0.0000 C   0  0  0  0  0  0  0  0  0  0  0  0
   -2.6800    1.2700    0.0000 C   0  0  0  0  0  0  0  0  0  0  0  0
   -1.2100    0.9600    0.0000 C   0  0  0  0  0  0  0  0  0  0  0  0
  1  2  1  0  0  0  0 
  2  3  1  0  0  0  0 
  2  4  1  0  0  0  0 
  2  5  1  0  0  0  0 
  5  6  1  0  0  0  0 
  6  7  1  0  0  0  0 
  7  8  2  0  0  0  0 
  7  9  1  0  0  0  0 
  9 10  1  0  0  0  0 
 10 11  1  0  0  0  0 
 11 12  1  0  0  0  0 
 12 13  1  0  0  0  0 
 13 14  1  0  0  0  0 
 14 15  1  0  0  0  0 
 15 16  1  0  0  0  0 
 16 17  1  0  0  0  0 
 17 18  1  0  0  0  0 
 18 19  1  0  0  0  0 
 14 19  1  0  0  0  0 
 17 20  1  0  0  0  0 
 20 21  1  0  0  0  0 
 21 22  2  0  0  0  0 
 21 23  1  0  0  0  0 
 23 24  2  0  0  0  0 
 24 25  1  0  0  0  0 
 25 26  2  0  0  0  0 
 26 27  1  0  0  0  0 
 27 28  2  0  0  0  0 
 23 28  1  0  0  0  0 
 24 29  1  0  0  0  0 
 29 30  2  0  0  0  0 
 30 31  1  0  0  0  0 
 31 32  2  0  0  0  0 
 32 33  1  0  0  0  0 
 33 34  2  0  0  0  0 
 29 34  1  0  0  0  0 
 32 35  1  0  0  0  0 
 35 36  1  0  0  0  0 
 35 37  1  0  0  0  0 
 35 38  1  0  0  0  0 
  9 39  1  0  0  0  0 
 39 40  2  0  0  0  0 
 40 41  1  0  0  0  0 
 41 42  2  0  0  0  0 
 42 43  1  0  0  0  0 
 43 44  2  0  0  0  0 
 39 44  1  0  0  0  0 
 44 45  1  0  0  0  0 
 45 46  2  0  0  0  0 
 46 47  1  0  0  0  0 
 47 48  2  0  0  0  0 
 48 49  1  0  0  0  0 
 49 50  2  0  0  0  0 
  9 50  1  0  0  0  0 
 45 50  1  0  0  0  0 
M  END
> <SMILES>
FC(F)(F)CNC(=O)C1(CCCCN2CCC(CC2)NC(=O)C2=C(C=CC=C2)C2=CC=C(C=C2)C(F)(F)F)C2=CC=CC=C2C2=CC=CC=C12

$$$$

  CDK     06141809482D

 27 29  0  0  0  0  0  0  0  0999 V2000
   -3.9195    8.9928    0.0000 C   0  0  0  0  0  0  0  0  0  0  0  0
   -3.1695    7.6938    0.0000 S   0  0  0  0  0  0  0  0  0  0  0  0
   -4.5791    7.1807    0.0000 O   0  0  0  0  0  0  0  0  0  0  0  0
   -2.9090    6.2166    0.0000 O   0  0  0  0  0  0  0  0  0  0  0  0
   -1.6695    7.6938    0.0000 C   0  0  0  0  0  0  0  0  0  0  0  0
   -0.9189    8.9934    0.0000 C   0  0  0  0  0  0  0  0  0  0  0  0
    0.5819    8.9941    0.0000 C   0  0  0  0  0  0  0  0  0  0  0  0
    1.3315   10.2934    0.0000 Cl  0  0  0  0  0  0  0  0  0  0  0  0
    1.3322    7.6952    0.0000 C   0  0  0  0  0  0  0  0  0  0  0  0
    0.5815    6.3956    0.0000 C   0  0  0  0  0  0  0  0  0  0  0  0
   -0.9193    6.3948    0.0000 C   0  0  0  0  0  0  0  0  0  0  0  0
    2.8322    7.6952    0.0000 C   0  0  0  0  0  0  0  0  0  0  0  0
    3.5822    8.9942    0.0000 O   0  0  0  0  0  0  0  0  0  0  0  0
    3.5822    6.3962    0.0000 N   0  0  0  0  0  0  0  0  0  0  0  0
    5.0822    6.3962    0.0000 C   0  0  0  0  0  0  0  0  0  0  0  0
    5.8328    7.6958    0.0000 C   0  0  0  0  0  0  0  0  0  0  0  0
    7.3336    7.6965    0.0000 C   0  0  0  0  0  0  0  0  0  0  0  0
    8.0838    6.3976    0.0000 C   0  0  0  0  0  0  0  0  0  0  0  0
    9.5838    6.3976    0.0000 Cl  0  0  0  0  0  0  0  0  0  0  0  0
    7.3332    5.0980    0.0000 C   0  0  0  0  0  0  0  0  0  0  0  0
    5.8324    5.0972    0.0000 C   0  0  0  0  0  0  0  0  0  0  0  0
    8.0834    3.7991    0.0000 C   0  0  0  0  0  0  0  0  0  0  0  0
    9.5834    3.7991    0.0000 C   0  0  0  0  0  0  0  0  0  0  0  0
   10.3334    2.4991    0.0000 C   0  0  0  0  0  0  0  0  0  0  0  0
    9.5834    1.1991    0.0000 C   0  0  0  0  0  0  0  0  0  0  0  0
    8.0834    1.1991    0.0000 C   0  0  0  0  0  0  0  0  0  0  0  0
    7.3334    2.4991    0.0000 N   0  0  0  0  0  0  0  0  0  0  0  0
  1  2  1  0  0  0  0 
  2  3  2  0  0  0  0 
  2  4  2  0  0  0  0 
  2  5  1  0  0  0  0 
  5  6  2  0  0  0  0 
  6  7  1  0  0  0  0 
  7  8  1  0  0  0  0 
  7  9  2  0  0  0  0 
  9 10  1  0  0  0  0 
 10 11  2  0  0  0  0 
  5 11  1  0  0  0  0 
  9 12  1  0  0  0  0 
 12 13  2  0  0  0  0 
 12 14  1  0  0  0  0 
 14 15  1  0  0  0  0 
 15 16  2  0  0  0  0 
 16 17  1  0  0  0  0 
 17 18  2  0  0  0  0 
 18 19  1  0  0  0  0 
 18 20  1  0  0  0  0 
 20 21  2  0  0  0  0 
 15 21  1  0  0  0  0 
 20 22  1  0  0  0  0 
 22 23  2  0  0  0  0 
 23 24  1  0  0  0  0 
 24 25  2  0  0  0  0 
 25 26  1  0  0  0  0 
 26 27  2  0  0  0  0 
 22 27  1  0  0  0  0 
M  END
> <SMILES>
CS(=O)(=O)C1=CC(Cl)=C(C=C1)C(=O)NC1=CC=C(Cl)C(=C1)C1=CC=CC=N1

$$$$

  CDK     06141809482D

 31 34  0  0  1  0  0  0  0  0999 V2000
    9.0948    3.0010    0.0000 O   0  0  0  0  0  0  0  0  0  0  0  0
    9.0951    1.5010    0.0000 C   0  0  2  0  0  0  0  0  0  0  0  0
    7.7962    0.7508    0.0000 C   0  0  0  0  0  0  0  0  0  0  0  0
    6.4970    1.5006    0.0000 C   0  0  2  0  0  0  0  0  0  0  0  0
    6.4968    3.0006    0.0000 O   0  0  0  0  0  0  0  0  0  0  0  0
    5.1981    0.7504    0.0000 C   0  0  0  0  0  0  0  0  0  0  0  0
    3.8989    1.5002    0.0000 C   0  0  0  0  0  0  0  0  0  0  0  0
    2.6000    0.7500    0.0000 C   0  0  0  0  0  0  0  0  0  0  0  0
    2.6000   -0.7500    0.0000 C   0  0  0  0  0  0  0  0  0  0  0  0
    1.3000   -1.5000    0.0000 N   0  0  0  0  0  0  0  0  0  0  0  0
   -0.0000   -0.7500    0.0000 C   0  0  0  0  0  0  0  0  0  0  0  0
   -1.3000   -1.5000    0.0000 C   0  0  0  0  0  0  0  0  0  0  0  0
   -2.6000   -0.7500    0.0000 C   0  0  0  0  0  0  0  0  0  0  0  0
   -2.6000    0.7500    0.0000 C   0  0  0  0  0  0  0  0  0  0  0  0
   -1.3000    1.5000    0.0000 C   0  0  0  0  0  0  0  0  0  0  0  0
   -0.0000    0.7500    0.0000 C   0  0  0  0  0  0  0  0  0  0  0  0
    1.3000    1.5000    0.0000 C   0  0  0  0  0  0  0  0  0  0  0  0
    1.3000    3.0000    0.0000 C   0  0  0  0  0  0  0  0  0  0  0  0
    0.0011    3.7502    0.0000 C   0  0  0  0  0  0  0  0  0  0  0  0
    0.0018    5.2510    0.0000 C   0  0  0  0  0  0  0  0  0  0  0  0
    1.3014    6.0017    0.0000 C   0  0  0  0  0  0  0  0  0  0  0  0
    1.3014    7.5017    0.0000 F   0  0  0  0  0  0  0  0  0  0  0  0
    2.6004    5.2515    0.0000 C   0  0  0  0  0  0  0  0  0  0  0  0
    2.5996    3.7506    0.0000 C   0  0  0  0  0  0  0  0  0  0  0  0
    3.8989   -1.5002    0.0000 C   0  0  0  0  0  0  0  0  0  0  0  0
    5.3998   -1.5009    0.0000 C   0  0  0  0  0  0  0  0  0  0  0  0
    4.6495   -2.7998    0.0000 C   0  0  0  0  0  0  0  0  0  0  0  0
   10.3942    0.7512    0.0000 C   0  0  0  0  0  0  0  0  0  0  0  0
   11.6931    1.5015    0.0000 C   0  0  0  0  0  0  0  0  0  0  0  0
   12.9923    0.7517    0.0000 O   0  0  0  0  0  0  0  0  0  0  0  0
   11.6929    3.0015    0.0000 O   0  0  0  0  0  0  0  0  0  0  0  0
  2  1  1  1  0  0  0 
  2  3  1  0  0  0  0 
  3  4  1  0  0  0  0 
  4  5  1  1  0  0  0 
  4  6  1  0  0  0  0 
  6  7  2  0  0  0  0 
  7  8  1  4  0  0  0 
  8  9  2  0  0  0  0 
  9 10  1  0  0  0  0 
 10 11  2  0  0  0  0 
 11 12  1  0  0  0  0 
 12 13  2  0  0  0  0 
 13 14  1  0  0  0  0 
 14 15  2  0  0  0  0 
 15 16  1  0  0  0  0 
 11 16  1  0  0  0  0 
 16 17  2  0  0  0  0 
  8 17  1  0  0  0  0 
 17 18  1  0  0  0  0 
 18 19  2  0  0  0  0 
 19 20  1  0  0  0  0 
 20 21  2  0  0  0  0 
 21 22  1  0  0  0  0 
 21 23  1  0  0  0  0 
 23 24  2  0  0  0  0 
 18 24  1  0  0  0  0 
  9 25  1  0  0  0  0 
 25 26  1  0  0  0  0 
 26 27  1  0  0  0  0 
 25 27  1  0  0  0  0 
  2 28  1  0  0  0  0 
 28 29  1  0  0  0  0 
 29 30  1  0  0  0  0 
 29 31  2  0  0  0  0 
M  END
> <SMILES>
O[C@H](C[C@H](O)C=CC1=C(N=C2C=CC=CC2=C1C1=CC=C(F)C=C1)C1CC1)CC(O)=O

$$$$

  CDK     06141809482D

 28 30  0  0  0  0  0  0  0  0999 V2000
   -6.1725   -4.6875    0.0000 C   0  0  0  0  0  0  0  0  0  0  0  0
   -6.1720   -3.1875    0.0000 C   0  0  0  0  0  0  0  0  0  0  0  0
   -7.4714   -2.4365    0.0000 C   0  0  0  0  0  0  0  0  0  0  0  0
   -7.4716   -0.9356    0.0000 C   0  0  0  0  0  0  0  0  0  0  0  0
   -8.7707   -0.1856    0.0000 C   0  0  0  0  0  0  0  0  0  0  0  0
  -10.0697   -0.9356    0.0000 C   0  0  0  0  0  0  0  0  0  0  0  0
  -11.3687   -0.1856    0.0000 C   0  0  0  0  0  0  0  0  0  0  0  0
  -12.6678    0.5644    0.0000 N   0  0  0  0  0  0  0  0  0  0  0  0
   -6.1725   -0.1858    0.0000 C   0  0  0  0  0  0  0  0  0  0  0  0
   -4.8731   -0.9369    0.0000 C   0  0  0  0  0  0  0  0  0  0  0  0
   -3.5739   -0.1871    0.0000 C   0  0  0  0  0  0  0  0  0  0  0  0
   -4.8728   -2.4377    0.0000 C   0  0  0  0  0  0  0  0  0  0  0  0
   -3.5738   -3.1877    0.0000 N   0  0  0  0  0  0  0  0  0  0  0  0
   -2.2748   -2.4377    0.0000 C   0  0  0  0  0  0  0  0  0  0  0  0
   -2.2752   -0.9369    0.0000 C   0  0  0  0  0  0  0  0  0  0  0  0
   -0.9762   -0.1869    0.0000 C   0  0  0  0  0  0  0  0  0  0  0  0
    0.3233   -0.9377    0.0000 N   0  0  0  0  0  0  0  0  0  0  0  0
    0.3238   -2.4385    0.0000 C   0  0  0  0  0  0  0  0  0  0  0  0
    1.6230   -3.1883    0.0000 N   0  0  0  0  0  0  0  0  0  0  0  0
    2.9219   -2.4381    0.0000 C   0  0  0  0  0  0  0  0  0  0  0  0
    2.9219   -0.9373    0.0000 C   0  0  0  0  0  0  0  0  0  0  0  0
    4.2212   -0.1860    0.0000 C   0  0  0  0  0  0  0  0  0  0  0  0
    5.5204   -0.9356    0.0000 C   0  0  0  0  0  0  0  0  0  0  0  0
    5.5204   -2.4365    0.0000 C   0  0  0  0  0  0  0  0  0  0  0  0
    4.2212   -3.1877    0.0000 C   0  0  0  0  0  0  0  0  0  0  0  0
    6.8193   -0.1854    0.0000 C   0  0  0  0  0  0  0  0  0  0  0  0
    8.1183    0.5648    0.0000 N   0  0  0  0  0  0  0  0  0  0  0  0
   -0.9752   -3.1885    0.0000 N   0  0  0  0  0  0  0  0  0  0  0  0
  1  2  1  0  0  0  0 
  2  3  2  0  0  0  0 
  3  4  1  0  0  0  0 
  4  5  1  0  0  0  0 
  5  6  2  0  0  0  0 
  6  7  1  4  0  0  0 
  7  8  3  0  0  0  0 
  4  9  2  0  0  0  0 
  9 10  1  0  0  0  0 
 10 11  1  0  0  0  0 
 10 12  2  0  0  0  0 
  2 12  1  0  0  0  0 
 12 13  1  0  0  0  0 
 13 14  1  0  0  0  0 
 14 15  2  0  0  0  0 
 15 16  1  0  0  0  0 
 16 17  2  0  0  0  0 
 17 18  1  0  0  0  0 
 18 19  1  0  0  0  0 
 19 20  1  0  0  0  0 
 20 21  2  0  0  0  0 
 21 22  1  0  0  0  0 
 22 23  2  0  0  0  0 
 23 24  1  0  0  0  0 
 24 25  2  0  0  0  0 
 20 25  1  0  0  0  0 
 23 26  1  0  0  0  0 
 26 27  3  0  0  0  0 
 18 28  2  0  0  0  0 
 14 28  1  0  0  0  0 
M  END
> <SMILES>
CC1=CC(C=CC#N)=CC(C)=C1NC1=CC=NC(NC2=CC=C(C=C2)C#N)=N1

$$$$

  CDK     06141809482D

 32 36  0  0  1  0  0  0  0  0999 V2000
   -5.3832    6.0016    0.0000 C   0  0  0  0  0  0  0  0  0  0  0  0
   -5.3834    4.5016    0.0000 N   0  0  0  0  0  0  0  0  0  0  0  0
   -6.6825    3.7518    0.0000 C   0  0  0  0  0  0  0  0  0  0  0  0
   -4.0845    3.7514    0.0000 C   0  0  0  0  0  0  0  0  0  0  0  0
   -2.7845    4.5014    0.0000 C   0  0  0  0  0  0  0  0  0  0  0  0
   -1.4845    3.7514    0.0000 C   0  0  0  0  0  0  0  0  0  0  0  0
   -1.4845    2.2514    0.0000 C   0  0  0  0  0  0  0  0  0  0  0  0
   -2.7845    1.5014    0.0000 C   0  0  0  0  0  0  0  0  0  0  0  0
   -4.0845    2.2514    0.0000 C   0  0  0  0  0  0  0  0  0  0  0  0
   -0.1856    1.5011    0.0000 C   0  0  1  0  0  0  0  0  0  0  0  0
    1.1144    2.2511    0.0000 C   0  0  0  0  0  0  0  0  0  0  0  0
    2.4144    1.5011    0.0000 C   0  0  1  0  0  0  0  0  0  0  0  0
    2.5732    2.9927    0.0000 C   0  0  0  0  0  0  0  0  0  0  0  0
    2.4144    0.0011    0.0000 C   0  0  1  0  0  0  0  0  0  0  0  0
    3.8444   -0.4589    0.0000 C   0  0  0  0  0  0  0  0  0  0  0  0
    4.7244    0.7511    0.0000 C   0  0  0  0  0  0  0  0  0  0  0  0
    3.8444    1.9611    0.0000 C   0  0  1  0  0  0  0  0  0  0  0  0
    5.1440    2.7103    0.0000 O   0  0  0  0  0  0  0  0  0  0  0  0
    3.0424    3.7714    0.0000 C   0  0  0  0  0  0  0  0  0  0  0  0
    3.9262    4.9834    0.0000 C   0  0  0  0  0  0  0  0  0  0  0  0
    1.5509    3.9309    0.0000 O   0  0  0  0  0  0  0  0  0  0  0  0
    1.1144   -0.7489    0.0000 C   0  0  2  0  0  0  0  0  0  0  0  0
    1.1144   -2.2489    0.0000 C   0  0  0  0  0  0  0  0  0  0  0  0
   -0.1856   -2.9989    0.0000 C   0  0  0  0  0  0  0  0  0  0  0  0
   -1.4856   -2.2489    0.0000 C   0  0  0  0  0  0  0  0  0  0  0  0
   -2.7856   -2.9989    0.0000 C   0  0  0  0  0  0  0  0  0  0  0  0
   -4.0856   -2.2489    0.0000 C   0  0  0  0  0  0  0  0  0  0  0  0
   -5.3845   -2.9991    0.0000 O   0  0  0  0  0  0  0  0  0  0  0  0
   -4.0856   -0.7489    0.0000 C   0  0  0  0  0  0  0  0  0  0  0  0
   -2.7856    0.0011    0.0000 C   0  0  0  0  0  0  0  0  0  0  0  0
   -1.4856   -0.7489    0.0000 C   0  0  0  0  0  0  0  0  0  0  0  0
   -0.1856    0.0011    0.0000 C   0  0  0  0  0  0  0  0  0  0  0  0
  1  2  1  0  0  0  0 
  2  3  1  0  0  0  0 
  2  4  1  0  0  0  0 
  4  5  2  0  0  0  0 
  5  6  1  0  0  0  0 
  6  7  2  0  0  0  0 
  7  8  1  0  0  0  0 
  8  9  2  0  0  0  0 
  4  9  1  0  0  0  0 
 10  7  1  1  0  0  0 
 10 11  1  0  0  0  0 
 11 12  1  0  0  0  0 
 12 13  1  1  0  0  0 
 12 14  1  0  0  0  0 
 14 15  1  1  0  0  0 
 15 16  1  0  0  0  0 
 16 17  1  0  0  0  0 
 12 17  1  0  0  0  0 
 17 18  1  6  0  0  0 
 17 19  1  1  0  0  0 
 19 20  1  0  0  0  0 
 19 21  2  0  0  0  0 
 14 22  1  0  0  0  0 
 22 23  1  6  0  0  0 
 23 24  1  0  0  0  0 
 24 25  1  0  0  0  0 
 25 26  2  0  0  0  0 
 26 27  1  0  0  0  0 
 27 28  2  0  0  0  0 
 27 29  1  0  0  0  0 
 29 30  1  0  0  0  0 
 30 31  1  0  0  0  0 
 25 31  1  0  0  0  0 
 31 32  2  0  0  0  0 
 10 32  1  0  0  0  0 
 22 32  1  0  0  0  0 
M  END
> <SMILES>
CN(C)C1=CC=C(C=C1)[C@H]1C[C@@]2(C)[C@@H](CC[C@]2(O)C(C)=O)[C@@H]2CCC3=CC(=O)CCC3=C12

$$$$

  CDK     06141809482D

 39 41  0  0  1  0  0  0  0  0999 V2000
   -0.0187    3.0000    0.0000 H   0  0  0  0  0  0  0  0  0  0  0  0
   -0.0100    1.5000    0.0000 C   0  0  1  0  0  0  0  0  0  0  0  0
    1.2900    0.7600    0.0000 C   0  0  0  0  0  0  0  0  0  0  0  0
    1.3000   -0.7400    0.0000 N   0  0  0  0  0  0  0  0  0  0  0  0
    0.0000   -1.5000    0.0000 C   0  0  2  0  0  0  0  0  0  0  0  0
   -0.0033   -3.0000    0.0000 C   0  0  0  0  0  0  0  0  0  0  0  0
   -1.3040   -3.7471    0.0000 O   0  0  0  0  0  0  0  0  0  0  0  0
    1.2941   -3.7529    0.0000 N   0  0  0  0  0  0  0  0  0  0  0  0
    1.2908   -5.2529    0.0000 C   0  0  0  0  0  0  0  0  0  0  0  0
   -0.0099   -6.0000    0.0000 C   0  0  0  0  0  0  0  0  0  0  0  0
   -0.0132   -7.5000    0.0000 C   0  0  0  0  0  0  0  0  0  0  0  0
    1.0451   -8.5630    0.0000 C   0  0  0  0  0  0  0  0  0  0  0  0
   -0.0179   -9.6213    0.0000 C   0  0  0  0  0  0  0  0  0  0  0  0
   -1.0762   -8.5583    0.0000 C   0  0  0  0  0  0  0  0  0  0  0  0
    2.5881   -6.0057    0.0000 C   0  0  0  0  0  0  0  0  0  0  0  0
    2.5848   -7.5057    0.0000 O   0  0  0  0  0  0  0  0  0  0  0  0
    3.8888   -5.2586    0.0000 C   0  0  0  0  0  0  0  0  0  0  0  0
    5.1862   -6.0115    0.0000 N   0  0  0  0  0  0  0  0  0  0  0  0
    3.8921   -3.7586    0.0000 O   0  0  0  0  0  0  0  0  0  0  0  0
   -1.2700   -0.7500    0.0000 C   0  0  1  0  0  0  0  0  0  0  0  0
   -2.5626   -1.5110    0.0000 H   0  0  0  0  0  0  0  0  0  0  0  0
   -1.3100    0.7400    0.0000 C   0  0  0  0  0  0  0  0  0  0  0  0
   -1.8407    2.1430    0.0000 C   0  0  0  0  0  0  0  0  0  0  0  0
   -2.7818    0.4505    0.0000 C   0  0  0  0  0  0  0  0  0  0  0  0
    2.6036   -1.4821    0.0000 C   0  0  0  0  0  0  0  0  0  0  0  0
    2.6126   -2.9821    0.0000 O   0  0  0  0  0  0  0  0  0  0  0  0
    3.8980   -0.7243    0.0000 C   0  0  1  0  0  0  0  0  0  0  0  0
    3.8890    0.7757    0.0000 N   0  0  0  0  0  0  0  0  0  0  0  0
    5.1834    1.5335    0.0000 C   0  0  0  0  0  0  0  0  0  0  0  0
    6.4870    0.7914    0.0000 O   0  0  0  0  0  0  0  0  0  0  0  0
    5.1744    3.0335    0.0000 N   0  0  0  0  0  0  0  0  0  0  0  0
    6.4688    3.7913    0.0000 C   0  0  0  0  0  0  0  0  0  0  0  0
    6.4598    5.2913    0.0000 C   0  0  0  0  0  0  0  0  0  0  0  0
    6.9904    2.3849    0.0000 C   0  0  0  0  0  0  0  0  0  0  0  0
    7.9444    4.0608    0.0000 C   0  0  0  0  0  0  0  0  0  0  0  0
    5.2016   -1.4664    0.0000 C   0  0  0  0  0  0  0  0  0  0  0  0
    6.4961   -0.7086    0.0000 C   0  0  0  0  0  0  0  0  0  0  0  0
    4.2444   -2.6213    0.0000 C   0  0  0  0  0  0  0  0  0  0  0  0
    6.1727   -2.6096    0.0000 C   0  0  0  0  0  0  0  0  0  0  0  0
  2  1  1  6  0  0  0 
  2  3  1  0  0  0  0 
  3  4  1  0  0  0  0 
  4  5  1  0  0  0  0 
  5  6  1  6  0  0  0 
  6  7  2  0  0  0  0 
  6  8  1  0  0  0  0 
  8  9  1  0  0  0  0 
  9 10  1  0  0  0  0 
 10 11  1  0  0  0  0 
 11 12  1  0  0  0  0 
 12 13  1  0  0  0  0 
 13 14  1  0  0  0  0 
 11 14  1  0  0  0  0 
  9 15  1  0  0  0  0 
 15 16  2  0  0  0  0 
 15 17  1  0  0  0  0 
 17 18  1  0  0  0  0 
 17 19  2  0  0  0  0 
  5 20  1  0  0  0  0 
  2 20  1  0  0  0  0 
 20 21  1  6  0  0  0 
 20 22  1  0  0  0  0 
  2 22  1  0  0  0  0 
 22 23  1  0  0  0  0 
 22 24  1  0  0  0  0 
  4 25  1  0  0  0  0 
 25 26  2  0  0  0  0 
 25 27  1  0  0  0  0 
 27 28  1  1  0  0  0 
 28 29  1  0  0  0  0 
 29 30  2  0  0  0  0 
 29 31  1  0  0  0  0 
 31 32  1  0  0  0  0 
 32 33  1  0  0  0  0 
 32 34  1  0  0  0  0 
 32 35  1  0  0  0  0 
 27 36  1  0  0  0  0 
 36 37  1  0  0  0  0 
 36 38  1  0  0  0  0 
 36 39  1  0  0  0  0 
M  END
> <SMILES>
[H][C@]12CN([C@H](C(=O)NC(CC3CCC3)C(=O)C(N)=O)[C@@]1([H])C2(C)C)C(=O)[C@@H](NC(=O)NC(C)(C)C)C(C)(C)C

$$$$

  CDK     06141809482D

 35 39  0  0  1  0  0  0  0  0999 V2000
    6.5881    3.5662    0.0000 C   0  0  0  0  0  0  0  0  0  0  0  0
    5.1205    3.2561    0.0000 C   0  0  0  0  0  0  0  0  0  0  0  0
    3.6529    2.9461    0.0000 C   0  0  0  0  0  0  0  0  0  0  0  0
    2.1853    2.6360    0.0000 C   0  0  0  0  0  0  0  0  0  0  0  0
    1.7200    1.2100    0.0000 N   0  0  0  0  0  0  0  0  0  0  0  0
    2.6000    0.0000    0.0000 C   0  0  0  0  0  0  0  0  0  0  0  0
    1.7200   -1.2100    0.0000 N   0  0  0  0  0  0  0  0  0  0  0  0
    0.2900   -0.7500    0.0000 C   0  0  0  0  0  0  0  0  0  0  0  0
    0.2900    0.7500    0.0000 C   0  0  0  0  0  0  0  0  0  0  0  0
   -1.0100    1.5000    0.0000 C   0  0  0  0  0  0  0  0  0  0  0  0
   -1.0100    3.0000    0.0000 O   0  0  0  0  0  0  0  0  0  0  0  0
   -2.3100    0.7500    0.0000 N   0  0  0  0  0  0  0  0  0  0  0  0
   -3.6089    1.5002    0.0000 C   0  0  0  0  0  0  0  0  0  0  0  0
   -4.9081    0.7504    0.0000 C   0  0  0  0  0  0  0  0  0  0  0  0
   -6.2078    1.5008    0.0000 N   0  0  0  0  0  0  0  0  0  0  0  0
   -7.5081    0.7512    0.0000 C   0  0  0  0  0  0  0  0  0  0  0  0
   -7.5086   -0.7488    0.0000 C   0  0  0  0  0  0  0  0  0  0  0  0
   -8.8088   -1.4983    0.0000 C   0  0  0  0  0  0  0  0  0  0  0  0
  -10.1086   -0.7479    0.0000 C   0  0  0  0  0  0  0  0  0  0  0  0
  -10.1081    0.7521    0.0000 C   0  0  0  0  0  0  0  0  0  0  0  0
   -8.8078    1.5017    0.0000 C   0  0  0  0  0  0  0  0  0  0  0  0
   -6.2088   -1.4992    0.0000 C   0  0  0  0  0  0  0  0  0  0  0  0
   -6.2093   -2.9992    0.0000 C   0  0  0  0  0  0  0  0  0  0  0  0
   -4.9086   -0.7496    0.0000 N   0  0  0  0  0  0  0  0  0  0  0  0
   -2.3100   -0.7500    0.0000 C   0  0  0  0  0  0  0  0  0  0  0  0
   -3.6089   -1.5002    0.0000 O   0  0  0  0  0  0  0  0  0  0  0  0
   -1.0100   -1.5000    0.0000 N   0  0  0  0  0  0  0  0  0  0  0  0
   -1.0100   -3.0000    0.0000 C   0  0  0  0  0  0  0  0  0  0  0  0
    4.1000   -0.0000    0.0000 N   0  0  0  0  0  0  0  0  0  0  0  0
    4.8500    1.3000    0.0000 C   0  0  0  0  0  0  0  0  0  0  0  0
    6.3500    1.3000    0.0000 C   0  0  0  0  0  0  0  0  0  0  0  0
    7.1000   -0.0000    0.0000 C   0  0  0  0  0  0  0  0  0  0  0  0
    6.3500   -1.3000    0.0000 C   0  0  1  0  0  0  0  0  0  0  0  0
    7.1002   -2.5989    0.0000 N   0  0  0  0  0  0  0  0  0  0  0  0
    4.8500   -1.3000    0.0000 C   0  0  0  0  0  0  0  0  0  0  0  0
  1  2  1  0  0  0  0 
  2  3  3  0  0  0  0 
  3  4  1  0  0  0  0 
  4  5  1  0  0  0  0 
  5  6  1  0  0  0  0 
  6  7  2  0  0  0  0 
  7  8  1  0  0  0  0 
  8  9  2  0  0  0  0 
  5  9  1  0  0  0  0 
  9 10  1  0  0  0  0 
 10 11  2  0  0  0  0 
 10 12  1  0  0  0  0 
 12 13  1  0  0  0  0 
 13 14  1  0  0  0  0 
 14 15  2  0  0  0  0 
 15 16  1  0  0  0  0 
 16 17  2  0  0  0  0 
 17 18  1  0  0  0  0 
 18 19  2  0  0  0  0 
 19 20  1  0  0  0  0 
 20 21  2  0  0  0  0 
 16 21  1  0  0  0  0 
 17 22  1  0  0  0  0 
 22 23  1  0  0  0  0 
 22 24  2  0  0  0  0 
 14 24  1  0  0  0  0 
 12 25  1  0  0  0  0 
 25 26  2  0  0  0  0 
 25 27  1  0  0  0  0 
  8 27  1  0  0  0  0 
 27 28  1  0  0  0  0 
  6 29  1  0  0  0  0 
 29 30  1  0  0  0  0 
 30 31  1  0  0  0  0 
 31 32  1  0  0  0  0 
 32 33  1  0  0  0  0 
 33 34  1  1  0  0  0 
 33 35  1  0  0  0  0 
 29 35  1  0  0  0  0 
M  END
> <SMILES>
CC#CCN1C(=NC2=C1C(=O)N(CC1=NC3=C(C=CC=C3)C(C)=N1)C(=O)N2C)N1CCC[C@@H](N)C1

$$$$

  CDK     06141809482D

 52 55  0  0  1  0  0  0  0  0999 V2000
   10.9059    5.2816    0.0000 C   0  0  0  0  0  0  0  0  0  0  0  0
   10.9061    3.7816    0.0000 C   0  0  0  0  0  0  0  0  0  0  0  0
   12.2053    3.0318    0.0000 C   0  0  0  0  0  0  0  0  0  0  0  0
    9.6072    3.0314    0.0000 C   0  0  0  0  0  0  0  0  0  0  0  0
    9.6074    1.5314    0.0000 C   0  0  2  0  0  0  0  0  0  0  0  0
    8.3085    0.7812    0.0000 N   0  0  0  0  0  0  0  0  0  0  0  0
    7.0093    1.5310    0.0000 C   0  0  0  0  0  0  0  0  0  0  0  0
    7.0091    3.0310    0.0000 O   0  0  0  0  0  0  0  0  0  0  0  0
    5.7104    0.7808    0.0000 C   0  0  2  0  0  0  0  0  0  0  0  0
    5.7107   -0.7192    0.0000 C   0  0  0  0  0  0  0  0  0  0  0  0
    4.4117   -1.4694    0.0000 C   0  0  0  0  0  0  0  0  0  0  0  0
    4.4120   -2.9694    0.0000 C   0  0  0  0  0  0  0  0  0  0  0  0
    5.7121   -3.7192    0.0000 C   0  0  0  0  0  0  0  0  0  0  0  0
    5.7123   -5.2192    0.0000 C   0  0  0  0  0  0  0  0  0  0  0  0
    4.4125   -5.9694    0.0000 C   0  0  0  0  0  0  0  0  0  0  0  0
    3.1123   -5.2197    0.0000 C   0  0  0  0  0  0  0  0  0  0  0  0
    3.1121   -3.7197    0.0000 C   0  0  0  0  0  0  0  0  0  0  0  0
    4.4113    1.5306    0.0000 N   0  0  0  0  0  0  0  0  0  0  0  0
    3.1123    0.7803    0.0000 C   0  0  0  0  0  0  0  0  0  0  0  0
    3.1126   -0.7197    0.0000 O   0  0  0  0  0  0  0  0  0  0  0  0
    1.8132    1.5301    0.0000 C   0  0  0  0  0  0  0  0  0  0  0  0
    0.5143    0.7799    0.0000 N   0  0  0  0  0  0  0  0  0  0  0  0
    0.5143   -0.7201    0.0000 C   0  0  0  0  0  0  0  0  0  0  0  0
   -0.7857   -1.4701    0.0000 C   0  0  0  0  0  0  0  0  0  0  0  0
   -2.0857   -0.7201    0.0000 O   0  0  0  0  0  0  0  0  0  0  0  0
   -2.0857    0.7799    0.0000 C   0  0  0  0  0  0  0  0  0  0  0  0
   -0.7857    1.5299    0.0000 C   0  0  0  0  0  0  0  0  0  0  0  0
   10.9066    0.7816    0.0000 C   0  0  0  0  0  0  0  0  0  0  0  0
   10.9068   -0.7184    0.0000 O   0  0  0  0  0  0  0  0  0  0  0  0
   12.2055    1.5318    0.0000 N   0  0  0  0  0  0  0  0  0  0  0  0
   13.5047    0.7820    0.0000 C   0  0  1  0  0  0  0  0  0  0  0  0
   13.5049   -0.7180    0.0000 C   0  0  0  0  0  0  0  0  0  0  0  0
   14.8040   -1.4678    0.0000 C   0  0  0  0  0  0  0  0  0  0  0  0
   16.1034   -0.7167    0.0000 C   0  0  0  0  0  0  0  0  0  0  0  0
   17.4026   -1.4665    0.0000 C   0  0  0  0  0  0  0  0  0  0  0  0
   17.4024   -2.9674    0.0000 C   0  0  0  0  0  0  0  0  0  0  0  0
   16.1030   -3.7184    0.0000 C   0  0  0  0  0  0  0  0  0  0  0  0
   14.8038   -2.9686    0.0000 C   0  0  0  0  0  0  0  0  0  0  0  0
   14.8036    1.5322    0.0000 C   0  0  0  0  0  0  0  0  0  0  0  0
   14.8033    3.0322    0.0000 O   0  0  0  0  0  0  0  0  0  0  0  0
   16.1027    0.7824    0.0000 N   0  0  0  0  0  0  0  0  0  0  0  0
   17.4016    1.5326    0.0000 C   0  0  1  0  0  0  0  0  0  0  0  0
   19.1165    0.5429    0.0000 C   0  0  0  0  0  0  0  0  0  0  0  0
   20.4155    1.2931    0.0000 C   0  0  0  0  0  0  0  0  0  0  0  0
   21.7146    0.5433    0.0000 C   0  0  0  0  0  0  0  0  0  0  0  0
   20.4152    2.7931    0.0000 C   0  0  0  0  0  0  0  0  0  0  0  0
   17.4014    3.0326    0.0000 C   0  0  0  0  0  0  0  0  0  0  0  0
   16.1022    3.7824    0.0000 O   0  0  0  0  0  0  0  0  0  0  0  0
   18.7003    3.7828    0.0000 C   0  0  1  0  0  0  0  0  0  0  0  0
   19.6646    2.6338    0.0000 C   0  0  0  0  0  0  0  0  0  0  0  0
   18.1869    5.1922    0.0000 C   0  0  0  0  0  0  0  0  0  0  0  0
   19.6651    4.9325    0.0000 O   0  0  0  0  0  0  0  0  0  0  0  0
  1  2  1  0  0  0  0 
  2  3  1  0  0  0  0 
  2  4  1  0  0  0  0 
  4  5  1  0  0  0  0 
  5  6  1  1  0  0  0 
  6  7  1  0  0  0  0 
  7  8  2  0  0  0  0 
  7  9  1  0  0  0  0 
  9 10  1  0  0  0  0 
 10 11  1  0  0  0  0 
 11 12  1  0  0  0  0 
 12 13  2  0  0  0  0 
 13 14  1  0  0  0  0 
 14 15  2  0  0  0  0 
 15 16  1  0  0  0  0 
 16 17  2  0  0  0  0 
 12 17  1  0  0  0  0 
  9 18  1  6  0  0  0 
 18 19  1  0  0  0  0 
 19 20  2  0  0  0  0 
 19 21  1  0  0  0  0 
 21 22  1  0  0  0  0 
 22 23  1  0  0  0  0 
 23 24  1  0  0  0  0 
 24 25  1  0  0  0  0 
 25 26  1  0  0  0  0 
 26 27  1  0  0  0  0 
 22 27  1  0  0  0  0 
  5 28  1  0  0  0  0 
 28 29  2  0  0  0  0 
 28 30  1  0  0  0  0 
 31 30  1  6  0  0  0 
 31 32  1  0  0  0  0 
 32 33  1  0  0  0  0 
 33 34  2  0  0  0  0 
 34 35  1  0  0  0  0 
 35 36  2  0  0  0  0 
 36 37  1  0  0  0  0 
 37 38  2  0  0  0  0 
 33 38  1  0  0  0  0 
 31 39  1  0  0  0  0 
 39 40  2  0  0  0  0 
 39 41  1  0  0  0  0 
 42 41  1  6  0  0  0 
 42 43  1  0  0  0  0 
 43 44  1  0  0  0  0 
 44 45  1  0  0  0  0 
 44 46  1  0  0  0  0 
 42 47  1  0  0  0  0 
 47 48  2  0  0  0  0 
 49 47  1  1  0  0  0 
 49 50  1  6  0  0  0 
 49 51  1  0  0  0  0 
 51 52  1  0  0  0  0 
 49 52  1  0  0  0  0 
M  END
> <SMILES>
CC(C)C[C@H](NC(=O)[C@H](CCC1=CC=CC=C1)NC(=O)CN1CCOCC1)C(=O)N[C@@H](CC1=CC=CC=C1)C(=O)N[C@@H](CC(C)C)C(=O)[C@@]1(C)CO1

$$$$

  CDK     06141809482D

 28 30  0  0  1  0  0  0  0  0999 V2000
    2.6377   -0.8500    0.0000 N   0  0  0  0  0  0  0  0  0  0  0  0
    1.2100   -0.3900    0.0000 C   0  0  0  0  0  0  0  0  0  0  0  0
    0.7500    1.0300    0.0000 N   0  0  0  0  0  0  0  0  0  0  0  0
   -0.7500    1.0300    0.0000 C   0  0  0  0  0  0  0  0  0  0  0  0
   -1.6322    2.2431    0.0000 C   0  0  0  0  0  0  0  0  0  0  0  0
   -3.1239    2.0857    0.0000 C   0  0  0  0  0  0  0  0  0  0  0  0
   -3.7334    0.7151    0.0000 O   0  0  0  0  0  0  0  0  0  0  0  0
   -4.0061    3.2988    0.0000 N   0  0  0  0  0  0  0  0  0  0  0  0
   -5.4979    3.1414    0.0000 C   0  0  0  0  0  0  0  0  0  0  0  0
   -6.1079    1.7701    0.0000 C   0  0  0  0  0  0  0  0  0  0  0  0
   -7.6004    1.6119    0.0000 C   0  0  0  0  0  0  0  0  0  0  0  0
   -8.4828    2.8249    0.0000 C   0  0  0  0  0  0  0  0  0  0  0  0
   -9.9745    2.6674    0.0000 C   0  0  0  0  0  0  0  0  0  0  0  0
  -10.8567    3.8805    0.0000 C   0  0  0  0  0  0  0  0  0  0  0  0
  -12.3484    3.7231    0.0000 N   0  0  0  0  0  0  0  0  0  0  0  0
  -13.2306    4.9362    0.0000 C   0  0  0  0  0  0  0  0  0  0  0  0
  -14.7224    4.7788    0.0000 C   0  0  2  0  0  0  0  0  0  0  0  0
  -15.3319    3.4082    0.0000 O   0  0  0  0  0  0  0  0  0  0  0  0
  -15.6046    5.9919    0.0000 C   0  0  0  0  0  0  0  0  0  0  0  0
  -17.0971    5.8339    0.0000 C   0  0  0  0  0  0  0  0  0  0  0  0
  -17.9793    7.0470    0.0000 C   0  0  0  0  0  0  0  0  0  0  0  0
  -17.3690    8.4182    0.0000 C   0  0  0  0  0  0  0  0  0  0  0  0
  -15.8765    8.5762    0.0000 C   0  0  0  0  0  0  0  0  0  0  0  0
  -14.9943    7.3631    0.0000 C   0  0  0  0  0  0  0  0  0  0  0  0
   -7.8727    4.1961    0.0000 C   0  0  0  0  0  0  0  0  0  0  0  0
   -6.3803    4.3544    0.0000 C   0  0  0  0  0  0  0  0  0  0  0  0
   -1.2100   -0.3900    0.0000 C   0  0  0  0  0  0  0  0  0  0  0  0
    0.0000   -1.2800    0.0000 S   0  0  0  0  0  0  0  0  0  0  0  0
  1  2  1  0  0  0  0 
  2  3  2  0  0  0  0 
  3  4  1  0  0  0  0 
  4  5  1  0  0  0  0 
  5  6  1  0  0  0  0 
  6  7  2  0  0  0  0 
  6  8  1  0  0  0  0 
  8  9  1  0  0  0  0 
  9 10  2  0  0  0  0 
 10 11  1  0  0  0  0 
 11 12  2  0  0  0  0 
 12 13  1  0  0  0  0 
 13 14  1  0  0  0  0 
 14 15  1  0  0  0  0 
 15 16  1  0  0  0  0 
 16 17  1  0  0  0  0 
 17 18  1  6  0  0  0 
 17 19  1  0  0  0  0 
 19 20  2  0  0  0  0 
 20 21  1  0  0  0  0 
 21 22  2  0  0  0  0 
 22 23  1  0  0  0  0 
 23 24  2  0  0  0  0 
 19 24  1  0  0  0  0 
 12 25  1  0  0  0  0 
 25 26  2  0  0  0  0 
  9 26  1  0  0  0  0 
  4 27  2  0  0  0  0 
 27 28  1  0  0  0  0 
  2 28  1  0  0  0  0 
M  END
> <SMILES>
NC1=NC(CC(=O)NC2=CC=C(CCNC[C@H](O)C3=CC=CC=C3)C=C2)=CS1

$$$$

  CDK     06141809482D

 33 35  0  0  0  0  0  0  0  0999 V2000
   -8.0768    7.0152    0.0000 C   0  0  0  0  0  0  0  0  0  0  0  0
   -6.7776    6.2654    0.0000 N   0  0  0  0  0  0  0  0  0  0  0  0
   -5.4787    7.0156    0.0000 C   0  0  0  0  0  0  0  0  0  0  0  0
   -5.4790    8.5156    0.0000 O   0  0  0  0  0  0  0  0  0  0  0  0
   -4.1796    6.2658    0.0000 C   0  0  0  0  0  0  0  0  0  0  0  0
   -2.8805    7.0158    0.0000 C   0  0  0  0  0  0  0  0  0  0  0  0
   -1.5810    6.2649    0.0000 C   0  0  0  0  0  0  0  0  0  0  0  0
   -0.2820    7.0149    0.0000 O   0  0  0  0  0  0  0  0  0  0  0  0
    1.0171    6.2649    0.0000 C   0  0  0  0  0  0  0  0  0  0  0  0
    2.3169    7.0152    0.0000 C   0  0  0  0  0  0  0  0  0  0  0  0
    3.6171    6.2654    0.0000 C   0  0  0  0  0  0  0  0  0  0  0  0
    4.9159    7.0158    0.0000 F   0  0  0  0  0  0  0  0  0  0  0  0
    3.6173    4.7654    0.0000 C   0  0  0  0  0  0  0  0  0  0  0  0
    4.9163    4.0154    0.0000 N   0  0  0  0  0  0  0  0  0  0  0  0
    6.2154    4.7654    0.0000 C   0  0  0  0  0  0  0  0  0  0  0  0
    6.2154    6.2654    0.0000 O   0  0  0  0  0  0  0  0  0  0  0  0
    7.5144    4.0154    0.0000 N   0  0  0  0  0  0  0  0  0  0  0  0
    8.8135    4.7654    0.0000 C   0  0  0  0  0  0  0  0  0  0  0  0
    8.8137    6.2662    0.0000 C   0  0  0  0  0  0  0  0  0  0  0  0
   10.1131    7.0172    0.0000 C   0  0  0  0  0  0  0  0  0  0  0  0
   11.4123    6.2674    0.0000 C   0  0  0  0  0  0  0  0  0  0  0  0
   12.7113    7.0174    0.0000 Cl  0  0  0  0  0  0  0  0  0  0  0  0
   11.4120    4.7666    0.0000 C   0  0  0  0  0  0  0  0  0  0  0  0
   10.1126    4.0156    0.0000 C   0  0  0  0  0  0  0  0  0  0  0  0
   12.7112    4.0168    0.0000 C   0  0  0  0  0  0  0  0  0  0  0  0
   14.0101    4.7670    0.0000 F   0  0  0  0  0  0  0  0  0  0  0  0
   11.7472    2.8676    0.0000 F   0  0  0  0  0  0  0  0  0  0  0  0
   13.6755    2.8679    0.0000 F   0  0  0  0  0  0  0  0  0  0  0  0
    2.3174    4.0152    0.0000 C   0  0  0  0  0  0  0  0  0  0  0  0
    1.0173    4.7649    0.0000 C   0  0  0  0  0  0  0  0  0  0  0  0
   -1.5805    4.7641    0.0000 C   0  0  0  0  0  0  0  0  0  0  0  0
   -2.8796    4.0141    0.0000 C   0  0  0  0  0  0  0  0  0  0  0  0
   -4.1791    4.7649    0.0000 N   0  0  0  0  0  0  0  0  0  0  0  0
  1  2  1  0  0  0  0 
  2  3  1  0  0  0  0 
  3  4  2  0  0  0  0 
  3  5  1  0  0  0  0 
  5  6  2  0  0  0  0 
  6  7  1  0  0  0  0 
  7  8  1  0  0  0  0 
  8  9  1  0  0  0  0 
  9 10  2  0  0  0  0 
 10 11  1  0  0  0  0 
 11 12  1  0  0  0  0 
 11 13  2  0  0  0  0 
 13 14  1  0  0  0  0 
 14 15  1  0  0  0  0 
 15 16  2  0  0  0  0 
 15 17  1  0  0  0  0 
 17 18  1  0  0  0  0 
 18 19  2  0  0  0  0 
 19 20  1  0  0  0  0 
 20 21  2  0  0  0  0 
 21 22  1  0  0  0  0 
 21 23  1  0  0  0  0 
 23 24  2  0  0  0  0 
 18 24  1  0  0  0  0 
 23 25  1  0  0  0  0 
 25 26  1  0  0  0  0 
 25 27  1  0  0  0  0 
 25 28  1  0  0  0  0 
 13 29  1  0  0  0  0 
 29 30  2  0  0  0  0 
  9 30  1  0  0  0  0 
  7 31  2  0  0  0  0 
 31 32  1  0  0  0  0 
 32 33  2  0  0  0  0 
  5 33  1  0  0  0  0 
M  END
> <SMILES>
CNC(=O)C1=CC(OC2=CC(F)=C(NC(=O)NC3=CC=C(Cl)C(=C3)C(F)(F)F)C=C2)=CC=N1

$$$$

  CDK     06141809482D

 32 34  0  0  0  0  0  0  0  0999 V2000
   10.1692    0.9488    0.0000 C   0  0  0  0  0  0  0  0  0  0  0  0
    8.6775    1.1062    0.0000 N   0  0  0  0  0  0  0  0  0  0  0  0
    7.7953   -0.1069    0.0000 C   0  0  0  0  0  0  0  0  0  0  0  0
    8.4048   -1.4775    0.0000 O   0  0  0  0  0  0  0  0  0  0  0  0
    6.3036    0.0505    0.0000 C   0  0  0  0  0  0  0  0  0  0  0  0
    5.4207   -1.1632    0.0000 C   0  0  0  0  0  0  0  0  0  0  0  0
    6.0304   -2.5336    0.0000 F   0  0  0  0  0  0  0  0  0  0  0  0
    3.9281   -1.0063    0.0000 C   0  0  0  0  0  0  0  0  0  0  0  0
    3.3184    0.3642    0.0000 C   0  0  0  0  0  0  0  0  0  0  0  0
    4.2013    1.5778    0.0000 C   0  0  0  0  0  0  0  0  0  0  0  0
    5.6939    1.4210    0.0000 C   0  0  0  0  0  0  0  0  0  0  0  0
    1.8267    0.5216    0.0000 N   0  0  0  0  0  0  0  0  0  0  0  0
    0.8269   -0.5868    0.0000 C   0  0  0  0  0  0  0  0  0  0  0  0
    1.1424   -2.0532    0.0000 S   0  0  0  0  0  0  0  0  0  0  0  0
   -0.5489    0.0161    0.0000 N   0  0  0  0  0  0  0  0  0  0  0  0
   -0.3831    1.5090    0.0000 C   0  0  0  0  0  0  0  0  0  0  0  0
   -1.4953    2.5155    0.0000 O   0  0  0  0  0  0  0  0  0  0  0  0
    1.0767    1.8206    0.0000 C   0  0  0  0  0  0  0  0  0  0  0  0
    2.4468    2.4312    0.0000 C   0  0  0  0  0  0  0  0  0  0  0  0
    0.6123    3.2470    0.0000 C   0  0  0  0  0  0  0  0  0  0  0  0
   -1.8479   -0.7339    0.0000 C   0  0  0  0  0  0  0  0  0  0  0  0
   -1.8481   -2.2347    0.0000 C   0  0  0  0  0  0  0  0  0  0  0  0
   -3.1475   -2.9857    0.0000 C   0  0  0  0  0  0  0  0  0  0  0  0
   -4.4467   -2.2360    0.0000 C   0  0  0  0  0  0  0  0  0  0  0  0
   -5.7457   -2.9860    0.0000 C   0  0  0  0  0  0  0  0  0  0  0  0
   -7.0448   -3.7360    0.0000 N   0  0  0  0  0  0  0  0  0  0  0  0
   -4.4465   -0.7351    0.0000 C   0  0  0  0  0  0  0  0  0  0  0  0
   -3.1471    0.0159    0.0000 C   0  0  0  0  0  0  0  0  0  0  0  0
   -5.7456    0.0147    0.0000 C   0  0  0  0  0  0  0  0  0  0  0  0
   -7.0445   -0.7355    0.0000 F   0  0  0  0  0  0  0  0  0  0  0  0
   -4.7816    1.1639    0.0000 F   0  0  0  0  0  0  0  0  0  0  0  0
   -6.7100    1.1636    0.0000 F   0  0  0  0  0  0  0  0  0  0  0  0
  1  2  1  0  0  0  0 
  2  3  1  0  0  0  0 
  3  4  2  0  0  0  0 
  3  5  1  0  0  0  0 
  5  6  2  0  0  0  0 
  6  7  1  0  0  0  0 
  6  8  1  0  0  0  0 
  8  9  2  0  0  0  0 
  9 10  1  0  0  0  0 
 10 11  2  0  0  0  0 
  5 11  1  0  0  0  0 
  9 12  1  0  0  0  0 
 12 13  1  0  0  0  0 
 13 14  2  0  0  0  0 
 13 15  1  0  0  0  0 
 15 16  1  0  0  0  0 
 16 17  2  0  0  0  0 
 16 18  1  0  0  0  0 
 12 18  1  0  0  0  0 
 18 19  1  0  0  0  0 
 18 20  1  0  0  0  0 
 15 21  1  0  0  0  0 
 21 22  2  0  0  0  0 
 22 23  1  0  0  0  0 
 23 24  2  0  0  0  0 
 24 25  1  0  0  0  0 
 25 26  3  0  0  0  0 
 24 27  1  0  0  0  0 
 27 28  2  0  0  0  0 
 21 28  1  0  0  0  0 
 27 29  1  0  0  0  0 
 29 30  1  0  0  0  0 
 29 31  1  0  0  0  0 
 29 32  1  0  0  0  0 
M  END
> <SMILES>
CNC(=O)C1=C(F)C=C(C=C1)N1C(=S)N(C(=O)C1(C)C)C1=CC=C(C#N)C(=C1)C(F)(F)F

$$$$

  CDK     06141809482D

 39 43  0  0  1  0  0  0  0  0999 V2000
   -0.0760   -1.3154    0.0000 H   0  0  0  0  0  0  0  0  0  0  0  0
    1.1543   -2.1734    0.0000 C   0  0  2  0  0  0  0  0  0  0  0  0
    2.5943   -2.6334    0.0000 C   0  0  0  0  0  0  0  0  0  0  0  0
    3.4743   -1.4034    0.0000 C   0  0  1  0  0  0  0  0  0  0  0  0
    4.9743   -1.3916    0.0000 C   0  0  0  0  0  0  0  0  0  0  0  0
    2.5943   -0.2134    0.0000 C   0  0  2  0  0  0  0  0  0  0  0  0
    4.7173    1.0295    0.0000 O   0  0  0  0  0  0  0  0  0  0  0  0
    6.0208    0.2873    0.0000 C   0  0  0  0  0  0  0  0  0  0  0  0
    6.0299   -1.2126    0.0000 O   0  0  0  0  0  0  0  0  0  0  0  0
    7.3153    1.0452    0.0000 C   0  0  0  0  0  0  0  0  0  0  0  0
    8.6881    0.4512    0.0000 C   0  0  0  0  0  0  0  0  0  0  0  0
    9.6861    1.5710    0.0000 C   0  0  0  0  0  0  0  0  0  0  0  0
    8.9322    2.8592    0.0000 C   0  0  0  0  0  0  0  0  0  0  0  0
    7.4701    2.5415    0.0000 O   0  0  0  0  0  0  0  0  0  0  0  0
    1.9792    1.1546    0.0000 C   0  0  0  0  0  0  0  0  0  0  0  0
    0.4868    1.3059    0.0000 O   0  0  0  0  0  0  0  0  0  0  0  0
    2.8564    2.3714    0.0000 S   0  0  0  0  0  0  0  0  0  0  0  0
    2.0444    4.1772    0.0000 C   0  0  0  0  0  0  0  0  0  0  0  0
    2.9215    5.3940    0.0000 F   0  0  0  0  0  0  0  0  0  0  0  0
    1.1543   -0.6834    0.0000 C   0  0  2  0  0  0  0  0  0  0  0  0
    1.4893    2.2374    0.0000 C   0  0  0  0  0  0  0  0  0  0  0  0
   -0.1357    0.0966    0.0000 C   0  0  0  0  0  0  0  0  0  0  0  0
   -1.4657   -0.6834    0.0000 C   0  0  2  0  0  0  0  0  0  0  0  0
   -2.7672    0.0621    0.0000 O   0  0  0  0  0  0  0  0  0  0  0  0
   -1.4657   -2.1734    0.0000 C   0  0  1  0  0  0  0  0  0  0  0  0
   -2.7701   -1.4329    0.0000 F   0  0  0  0  0  0  0  0  0  0  0  0
   -0.1357   -2.9434    0.0000 C   0  0  1  0  0  0  0  0  0  0  0  0
    1.1688   -3.6840    0.0000 H   0  0  0  0  0  0  0  0  0  0  0  0
   -0.1357   -4.4334    0.0000 C   0  0  0  0  0  0  0  0  0  0  0  0
   -1.4657   -5.2034    0.0000 C   0  0  2  0  0  0  0  0  0  0  0  0
   -1.4757   -6.7034    0.0000 F   0  0  0  0  0  0  0  0  0  0  0  0
   -2.7557   -4.4334    0.0000 C   0  0  0  0  0  0  0  0  0  0  0  0
   -4.0957   -5.2034    0.0000 C   0  0  0  0  0  0  0  0  0  0  0  0
   -5.3757   -4.3834    0.0000 C   0  0  0  0  0  0  0  0  0  0  0  0
   -6.6917   -5.1033    0.0000 O   0  0  0  0  0  0  0  0  0  0  0  0
   -5.3757   -2.9434    0.0000 C   0  0  0  0  0  0  0  0  0  0  0  0
   -4.0957   -2.1734    0.0000 C   0  0  0  0  0  0  0  0  0  0  0  0
   -2.7557   -2.9434    0.0000 C   0  0  2  0  0  0  0  0  0  0  0  0
   -1.4413   -3.6663    0.0000 C   0  0  0  0  0  0  0  0  0  0  0  0
  2  1  1  6  0  0  0 
  2  3  1  0  0  0  0 
  3  4  1  0  0  0  0 
  4  5  1  6  0  0  0 
  4  6  1  0  0  0  0 
  6  7  1  6  0  0  0 
  7  8  1  0  0  0  0 
  8  9  2  0  0  0  0 
  8 10  1  0  0  0  0 
 10 11  2  0  0  0  0 
 11 12  1  0  0  0  0 
 12 13  2  0  0  0  0 
 13 14  1  0  0  0  0 
 10 14  1  0  0  0  0 
  6 15  1  1  0  0  0 
 15 16  2  0  0  0  0 
 15 17  1  0  0  0  0 
 17 18  1  0  0  0  0 
 18 19  1  0  0  0  0 
  6 20  1  0  0  0  0 
  2 20  1  0  0  0  0 
 20 21  1  1  0  0  0 
 20 22  1  0  0  0  0 
 22 23  1  0  0  0  0 
 23 24  1  1  0  0  0 
 23 25  1  0  0  0  0 
 25 26  1  6  0  0  0 
 25 27  1  0  0  0  0 
  2 27  1  0  0  0  0 
 27 28  1  1  0  0  0 
 27 29  1  0  0  0  0 
 29 30  1  0  0  0  0 
 30 31  1  6  0  0  0 
 30 32  1  0  0  0  0 
 32 33  2  0  0  0  0 
 33 34  1  0  0  0  0 
 34 35  2  0  0  0  0 
 34 36  1  0  0  0  0 
 36 37  2  0  0  0  0 
 37 38  1  0  0  0  0 
 25 38  1  0  0  0  0 
 32 38  1  0  0  0  0 
 38 39  1  1  0  0  0 
M  END
> <SMILES>
[H][C@@]12C[C@@H](C)[C@](OC(=O)C3=CC=CO3)(C(=O)SCF)[C@@]1(C)C[C@H](O)[C@@]1(F)[C@@]2([H])C[C@H](F)C2=CC(=O)C=C[C@]12C

$$$$

  CDK     06141809482D

 20 22  0  0  0  0  0  0  0  0999 V2000
   -1.0100    3.0000    0.0000 N   0  0  0  0  0  0  0  0  0  0  0  0
   -1.0100    1.5000    0.0000 C   0  0  0  0  0  0  0  0  0  0  0  0
   -2.3100    0.7500    0.0000 C   0  0  0  0  0  0  0  0  0  0  0  0
   -2.3100   -0.7500    0.0000 C   0  0  0  0  0  0  0  0  0  0  0  0
   -1.0100   -1.5000    0.0000 C   0  0  0  0  0  0  0  0  0  0  0  0
    0.2900   -0.7500    0.0000 C   0  0  0  0  0  0  0  0  0  0  0  0
    0.2900    0.7500    0.0000 C   0  0  0  0  0  0  0  0  0  0  0  0
    1.7200    1.2100    0.0000 C   0  0  0  0  0  0  0  0  0  0  0  0
    2.1853    2.6360    0.0000 O   0  0  0  0  0  0  0  0  0  0  0  0
    2.6000    0.0000    0.0000 N   0  0  0  0  0  0  0  0  0  0  0  0
    4.1000   -0.0000    0.0000 C   0  0  0  0  0  0  0  0  0  0  0  0
    4.8506   -1.2996    0.0000 C   0  0  0  0  0  0  0  0  0  0  0  0
    6.3515   -1.3004    0.0000 C   0  0  0  0  0  0  0  0  0  0  0  0
    7.1017   -0.0014    0.0000 C   0  0  0  0  0  0  0  0  0  0  0  0
    8.6017   -0.0014    0.0000 O   0  0  0  0  0  0  0  0  0  0  0  0
    6.3510    1.2982    0.0000 N   0  0  0  0  0  0  0  0  0  0  0  0
    4.8502    1.2989    0.0000 C   0  0  0  0  0  0  0  0  0  0  0  0
    4.1006    2.5982    0.0000 O   0  0  0  0  0  0  0  0  0  0  0  0
    1.7200   -1.2100    0.0000 C   0  0  0  0  0  0  0  0  0  0  0  0
    2.1853   -2.6360    0.0000 O   0  0  0  0  0  0  0  0  0  0  0  0
  1  2  1  0  0  0  0 
  2  3  2  0  0  0  0 
  3  4  1  0  0  0  0 
  4  5  2  0  0  0  0 
  5  6  1  0  0  0  0 
  6  7  2  0  0  0  0 
  2  7  1  0  0  0  0 
  7  8  1  0  0  0  0 
  8  9  2  0  0  0  0 
  8 10  1  0  0  0  0 
 10 11  1  0  0  0  0 
 11 12  1  0  0  0  0 
 12 13  1  0  0  0  0 
 13 14  1  0  0  0  0 
 14 15  2  0  0  0  0 
 14 16  1  0  0  0  0 
 16 17  1  0  0  0  0 
 11 17  1  0  0  0  0 
 17 18  2  0  0  0  0 
 10 19  1  0  0  0  0 
  6 19  1  0  0  0  0 
 19 20  2  0  0  0  0 
M  END
> <SMILES>
NC1=CC=CC2=C1C(=O)N(C1CCC(=O)NC1=O)C2=O

$$$$

  CDK     06141809482D

 35 38  0  0  0  0  0  0  0  0999 V2000
    6.2957    3.8073    0.0000 C   0  0  0  0  0  0  0  0  0  0  0  0
    4.8679    4.2673    0.0000 C   0  0  0  0  0  0  0  0  0  0  0  0
    5.5688    5.5934    0.0000 C   0  0  0  0  0  0  0  0  0  0  0  0
    3.6836    5.1878    0.0000 C   0  0  0  0  0  0  0  0  0  0  0  0
    3.7557    3.2608    0.0000 C   0  0  0  0  0  0  0  0  0  0  0  0
    2.2960    3.5724    0.0000 N   0  0  0  0  0  0  0  0  0  0  0  0
    1.5460    2.2734    0.0000 C   0  0  0  0  0  0  0  0  0  0  0  0
    2.5457    1.1650    0.0000 C   0  0  0  0  0  0  0  0  0  0  0  0
    3.9215    1.7679    0.0000 S   0  0  0  0  0  0  0  0  0  0  0  0
    2.2302   -0.3014    0.0000 C   0  0  0  0  0  0  0  0  0  0  0  0
    3.3429   -1.3086    0.0000 N   0  0  0  0  0  0  0  0  0  0  0  0
    3.0279   -2.7760    0.0000 C   0  0  0  0  0  0  0  0  0  0  0  0
    4.1404   -3.7821    0.0000 N   0  0  0  0  0  0  0  0  0  0  0  0
    1.6002   -3.2362    0.0000 N   0  0  0  0  0  0  0  0  0  0  0  0
    0.4875   -2.2290    0.0000 C   0  0  0  0  0  0  0  0  0  0  0  0
    0.8025   -0.7616    0.0000 C   0  0  0  0  0  0  0  0  0  0  0  0
    0.0542    2.1159    0.0000 C   0  0  0  0  0  0  0  0  0  0  0  0
   -0.8287    3.3296    0.0000 C   0  0  0  0  0  0  0  0  0  0  0  0
   -0.2189    4.7001    0.0000 F   0  0  0  0  0  0  0  0  0  0  0  0
   -2.3213    3.1728    0.0000 C   0  0  0  0  0  0  0  0  0  0  0  0
   -3.2031    4.3862    0.0000 N   0  0  0  0  0  0  0  0  0  0  0  0
   -4.6949    4.2292    0.0000 S   0  0  0  0  0  0  0  0  0  0  0  0
   -4.2812    2.7874    0.0000 O   0  0  0  0  0  0  0  0  0  0  0  0
   -6.0430    3.5715    0.0000 O   0  0  0  0  0  0  0  0  0  0  0  0
   -5.5767    5.4427    0.0000 C   0  0  0  0  0  0  0  0  0  0  0  0
   -4.9666    6.8139    0.0000 C   0  0  0  0  0  0  0  0  0  0  0  0
   -3.4748    6.9706    0.0000 F   0  0  0  0  0  0  0  0  0  0  0  0
   -5.8484    8.0284    0.0000 C   0  0  0  0  0  0  0  0  0  0  0  0
   -7.3401    7.8717    0.0000 C   0  0  0  0  0  0  0  0  0  0  0  0
   -7.9502    6.5004    0.0000 C   0  0  0  0  0  0  0  0  0  0  0  0
   -7.0685    5.2859    0.0000 C   0  0  0  0  0  0  0  0  0  0  0  0
   -7.6789    3.9157    0.0000 F   0  0  0  0  0  0  0  0  0  0  0  0
   -2.9310    1.8023    0.0000 C   0  0  0  0  0  0  0  0  0  0  0  0
   -2.0481    0.5886    0.0000 C   0  0  0  0  0  0  0  0  0  0  0  0
   -0.5555    0.7455    0.0000 C   0  0  0  0  0  0  0  0  0  0  0  0
  1  2  1  0  0  0  0 
  2  3  1  0  0  0  0 
  2  4  1  0  0  0  0 
  2  5  1  0  0  0  0 
  5  6  2  0  0  0  0 
  6  7  1  0  0  0  0 
  7  8  2  0  0  0  0 
  8  9  1  0  0  0  0 
  5  9  1  0  0  0  0 
  8 10  1  0  0  0  0 
 10 11  2  0  0  0  0 
 11 12  1  0  0  0  0 
 12 13  1  0  0  0  0 
 12 14  2  0  0  0  0 
 14 15  1  0  0  0  0 
 15 16  2  0  0  0  0 
 10 16  1  0  0  0  0 
  7 17  1  0  0  0  0 
 17 18  2  0  0  0  0 
 18 19  1  0  0  0  0 
 18 20  1  0  0  0  0 
 20 21  1  0  0  0  0 
 21 22  1  0  0  0  0 
 22 23  2  0  0  0  0 
 22 24  2  0  0  0  0 
 22 25  1  0  0  0  0 
 25 26  2  0  0  0  0 
 26 27  1  0  0  0  0 
 26 28  1  0  0  0  0 
 28 29  2  0  0  0  0 
 29 30  1  0  0  0  0 
 30 31  2  0  0  0  0 
 25 31  1  0  0  0  0 
 31 32  1  0  0  0  0 
 20 33  2  0  0  0  0 
 33 34  1  0  0  0  0 
 34 35  2  0  0  0  0 
 17 35  1  0  0  0  0 
M  END
> <SMILES>
CC(C)(C)C1=NC(=C(S1)C1=NC(N)=NC=C1)C1=C(F)C(NS(=O)(=O)C2=C(F)C=CC=C2F)=CC=C1

$$$$

  CDK     06141809482D

 18 19  0  0  1  0  0  0  0  0999 V2000
    4.9350    0.8011    0.0000 C   0  0  0  0  0  0  0  0  0  0  0  0
    3.5254    1.3138    0.0000 C   0  0  0  0  0  0  0  0  0  0  0  0
    2.3765    0.3494    0.0000 N   0  0  0  0  0  0  0  0  0  0  0  0
    2.6373   -1.1278    0.0000 C   0  0  0  0  0  0  0  0  0  0  0  0
    4.0470   -1.6405    0.0000 C   0  0  0  0  0  0  0  0  0  0  0  0
    0.9669    0.8621    0.0000 C   0  0  0  0  0  0  0  0  0  0  0  0
    0.7061    2.3393    0.0000 O   0  0  0  0  0  0  0  0  0  0  0  0
   -0.1820   -0.1023    0.0000 C   0  0  1  0  0  0  0  0  0  0  0  0
    0.5688   -1.4018    0.0000 C   0  0  0  0  0  0  0  0  0  0  0  0
   -0.9320   -1.4013    0.0000 C   0  0  1  0  0  0  0  0  0  0  0  0
   -2.2311   -2.1511    0.0000 C   0  0  0  0  0  0  0  0  0  0  0  0
   -2.2314   -3.6511    0.0000 N   0  0  0  0  0  0  0  0  0  0  0  0
   -1.3312    0.8617    0.0000 C   0  0  0  0  0  0  0  0  0  0  0  0
   -2.7413    0.3478    0.0000 C   0  0  0  0  0  0  0  0  0  0  0  0
   -3.8904    1.3119    0.0000 C   0  0  0  0  0  0  0  0  0  0  0  0
   -3.6295    2.7899    0.0000 C   0  0  0  0  0  0  0  0  0  0  0  0
   -2.2194    3.3038    0.0000 C   0  0  0  0  0  0  0  0  0  0  0  0
   -1.0702    2.3397    0.0000 C   0  0  0  0  0  0  0  0  0  0  0  0
  1  2  1  0  0  0  0 
  2  3  1  0  0  0  0 
  3  4  1  0  0  0  0 
  4  5  1  0  0  0  0 
  3  6  1  0  0  0  0 
  6  7  2  0  0  0  0 
  8  6  1  1  0  0  0 
  8  9  1  0  0  0  0 
  9 10  1  0  0  0  0 
  8 10  1  0  0  0  0 
 10 11  1  1  0  0  0 
 11 12  1  0  0  0  0 
  8 13  1  6  0  0  0 
 13 14  2  0  0  0  0 
 14 15  1  0  0  0  0 
 15 16  2  0  0  0  0 
 16 17  1  0  0  0  0 
 17 18  2  0  0  0  0 
 13 18  1  0  0  0  0 
M  END
> <SMILES>
CCN(CC)C(=O)[C@]1(C[C@H]1CN)C1=CC=CC=C1

$$$$

  CDK     06141809482D

 36 38  0  0  1  0  0  0  0  0999 V2000
    5.2038   14.7928    0.0000 C   0  0  0  0  0  0  0  0  0  0  0  0
    5.8207   13.4256    0.0000 C   0  0  0  0  0  0  0  0  0  0  0  0
    7.3133   13.2762    0.0000 C   0  0  0  0  0  0  0  0  0  0  0  0
    4.9451   12.2077    0.0000 O   0  0  0  0  0  0  0  0  0  0  0  0
    5.5620   10.8404    0.0000 C   0  0  0  0  0  0  0  0  0  0  0  0
    7.0546   10.6911    0.0000 O   0  0  0  0  0  0  0  0  0  0  0  0
    4.6864    9.6225    0.0000 C   0  0  2  0  0  0  0  0  0  0  0  0
    3.1939    9.7719    0.0000 C   0  0  0  0  0  0  0  0  0  0  0  0
    5.3033    8.2552    0.0000 N   0  0  0  0  0  0  0  0  0  0  0  0
    4.4277    7.0373    0.0000 P   0  0  2  0  0  0  0  0  0  0  0  0
    4.0214    5.5934    0.0000 O   0  0  0  0  0  0  0  0  0  0  0  0
    2.9351    7.1867    0.0000 O   0  0  0  0  0  0  0  0  0  0  0  0
    2.0595    5.9688    0.0000 C   0  0  0  0  0  0  0  0  0  0  0  0
    0.5670    6.1182    0.0000 C   0  0  1  0  0  0  0  0  0  0  0  0
   -0.4287    4.9936    0.0000 O   0  0  0  0  0  0  0  0  0  0  0  0
   -1.7989    5.6091    0.0000 C   0  0  1  0  0  0  0  0  0  0  0  0
   -3.0979    4.8591    0.0000 N   0  0  0  0  0  0  0  0  0  0  0  0
   -4.3974    5.6100    0.0000 C   0  0  0  0  0  0  0  0  0  0  0  0
   -5.6965    4.8600    0.0000 C   0  0  0  0  0  0  0  0  0  0  0  0
   -5.6960    3.3591    0.0000 C   0  0  0  0  0  0  0  0  0  0  0  0
   -6.9950    2.6091    0.0000 O   0  0  0  0  0  0  0  0  0  0  0  0
   -4.3965    2.6083    0.0000 N   0  0  0  0  0  0  0  0  0  0  0  0
   -3.0974    3.3583    0.0000 C   0  0  0  0  0  0  0  0  0  0  0  0
   -1.7983    2.6085    0.0000 O   0  0  0  0  0  0  0  0  0  0  0  0
   -1.6479    7.0941    0.0000 C   0  0  2  0  0  0  0  0  0  0  0  0
   -1.8088    8.5855    0.0000 C   0  0  0  0  0  0  0  0  0  0  0  0
   -3.1479    7.0895    0.0000 F   0  0  0  0  0  0  0  0  0  0  0  0
   -0.1814    7.4096    0.0000 C   0  0  2  0  0  0  0  0  0  0  0  0
    0.4259    8.7812    0.0000 O   0  0  0  0  0  0  0  0  0  0  0  0
    5.7791    6.3865    0.0000 O   0  0  0  0  0  0  0  0  0  0  0  0
    5.8912    4.8907    0.0000 C   0  0  0  0  0  0  0  0  0  0  0  0
    7.2433    4.2393    0.0000 C   0  0  0  0  0  0  0  0  0  0  0  0
    7.3562    2.7427    0.0000 C   0  0  0  0  0  0  0  0  0  0  0  0
    6.1170    1.8975    0.0000 C   0  0  0  0  0  0  0  0  0  0  0  0
    4.7649    2.5490    0.0000 C   0  0  0  0  0  0  0  0  0  0  0  0
    4.6520    4.0455    0.0000 C   0  0  0  0  0  0  0  0  0  0  0  0
  1  2  1  0  0  0  0 
  2  3  1  0  0  0  0 
  2  4  1  0  0  0  0 
  4  5  1  0  0  0  0 
  5  6  2  0  0  0  0 
  5  7  1  0  0  0  0 
  7  8  1  1  0  0  0 
  7  9  1  0  0  0  0 
 10  9  1  6  0  0  0 
 10 11  2  0  0  0  0 
 10 12  1  1  0  0  0 
 12 13  1  0  0  0  0 
 14 13  1  1  0  0  0 
 14 15  1  0  0  0  0 
 15 16  1  0  0  0  0 
 16 17  1  1  0  0  0 
 17 18  1  0  0  0  0 
 18 19  2  0  0  0  0 
 19 20  1  0  0  0  0 
 20 21  2  0  0  0  0 
 20 22  1  0  0  0  0 
 22 23  1  0  0  0  0 
 17 23  1  0  0  0  0 
 23 24  2  0  0  0  0 
 16 25  1  0  0  0  0 
 25 26  1  1  0  0  0 
 25 27  1  6  0  0  0 
 25 28  1  0  0  0  0 
 14 28  1  0  0  0  0 
 28 29  1  6  0  0  0 
 10 30  1  0  0  0  0 
 30 31  1  0  0  0  0 
 31 32  2  0  0  0  0 
 32 33  1  0  0  0  0 
 33 34  2  0  0  0  0 
 34 35  1  0  0  0  0 
 35 36  2  0  0  0  0 
 31 36  1  0  0  0  0 
M  END
> <SMILES>
CC(C)OC(=O)[C@H](C)N[P@](=O)(OC[C@H]1O[C@@H](N2C=CC(=O)NC2=O)[C@](C)(F)[C@@H]1O)OC1=CC=CC=C1

$$$$

  CDK     06141809482D

 71 80  0  0  1  0  0  0  0  0999 V2000
  -15.0376   -7.9820    0.0000 H   0  0  0  0  0  0  0  0  0  0  0  0
  -14.0411   -6.8608    0.0000 C   0  0  1  0  0  0  0  0  0  0  0  0
  -13.4881   -5.4665    0.0000 N   0  0  0  0  0  0  0  0  0  0  0  0
  -12.0041   -5.2482    0.0000 C   0  0  0  0  0  0  0  0  0  0  0  0
  -11.0730   -6.4243    0.0000 O   0  0  0  0  0  0  0  0  0  0  0  0
  -11.4511   -3.8539    0.0000 O   0  0  0  0  0  0  0  0  0  0  0  0
   -9.9670   -3.6356    0.0000 C   0  0  0  0  0  0  0  0  0  0  0  0
  -15.3182   -6.0741    0.0000 C   0  0  0  0  0  0  0  0  0  0  0  0
  -15.2755   -4.5747    0.0000 C   0  0  0  0  0  0  0  0  0  0  0  0
  -16.6381   -6.7868    0.0000 C   0  0  0  0  0  0  0  0  0  0  0  0
  -13.1100   -8.0369    0.0000 C   0  0  0  0  0  0  0  0  0  0  0  0
  -11.6260   -7.8186    0.0000 O   0  0  0  0  0  0  0  0  0  0  0  0
  -13.8400   -9.8774    0.0000 N   0  0  0  0  0  0  0  0  0  0  0  0
  -15.2931  -10.2496    0.0000 C   0  0  0  0  0  0  0  0  0  0  0  0
  -15.3881  -11.7466    0.0000 C   0  0  0  0  0  0  0  0  0  0  0  0
  -16.0838  -13.0755    0.0000 C   0  0  0  0  0  0  0  0  0  0  0  0
  -16.8869  -11.8086    0.0000 C   0  0  0  0  0  0  0  0  0  0  0  0
  -13.9938  -12.2996    0.0000 C   0  0  0  0  0  0  0  0  0  0  0  0
  -13.0370  -11.1444    0.0000 C   0  0  1  0  0  0  0  0  0  0  0  0
  -11.9881  -12.2167    0.0000 H   0  0  0  0  0  0  0  0  0  0  0  0
  -11.7171  -10.4317    0.0000 C   0  0  0  0  0  0  0  0  0  0  0  0
  -11.5353   -8.9449    0.0000 N   0  0  0  0  0  0  0  0  0  0  0  0
  -10.0646   -8.6792    0.0000 C   0  0  0  0  0  0  0  0  0  0  0  0
   -9.3362  -10.0044    0.0000 C   0  0  0  0  0  0  0  0  0  0  0  0
  -10.3757  -11.0946    0.0000 N   0  0  0  0  0  0  0  0  0  0  0  0
   -7.8487  -10.1981    0.0000 C   0  0  0  0  0  0  0  0  0  0  0  0
   -6.9317   -9.0101    0.0000 C   0  0  0  0  0  0  0  0  0  0  0  0
   -5.4415   -9.2004    0.0000 C   0  0  0  0  0  0  0  0  0  0  0  0
   -4.8675  -10.5886    0.0000 C   0  0  0  0  0  0  0  0  0  0  0  0
   -5.7745  -11.7757    0.0000 C   0  0  0  0  0  0  0  0  0  0  0  0
   -7.2648  -11.5854    0.0000 C   0  0  0  0  0  0  0  0  0  0  0  0
   -3.3724  -10.4674    0.0000 C   0  0  0  0  0  0  0  0  0  0  0  0
   -3.0294   -9.0049    0.0000 C   0  0  0  0  0  0  0  0  0  0  0  0
   -1.5892   -8.5772    0.0000 C   0  0  0  0  0  0  0  0  0  0  0  0
   -0.5028   -9.6028    0.0000 C   0  0  0  0  0  0  0  0  0  0  0  0
   -0.8458  -11.0653    0.0000 C   0  0  0  0  0  0  0  0  0  0  0  0
   -2.2860  -11.4930    0.0000 C   0  0  0  0  0  0  0  0  0  0  0  0
    0.9337   -9.1712    0.0000 C   0  0  0  0  0  0  0  0  0  0  0  0
    1.2786   -7.7105    0.0000 C   0  0  0  0  0  0  0  0  0  0  0  0
    2.7157   -7.2779    0.0000 C   0  0  0  0  0  0  0  0  0  0  0  0
    3.8080   -8.3060    0.0000 C   0  0  0  0  0  0  0  0  0  0  0  0
    3.4631   -9.7667    0.0000 C   0  0  0  0  0  0  0  0  0  0  0  0
    2.0260  -10.1993    0.0000 C   0  0  0  0  0  0  0  0  0  0  0  0
    5.1231   -7.5800    0.0000 N   0  0  0  0  0  0  0  0  0  0  0  0
    4.8451   -6.1099    0.0000 C   0  0  0  0  0  0  0  0  0  0  0  0
    3.3609   -5.9213    0.0000 N   0  0  0  0  0  0  0  0  0  0  0  0
    5.8732   -5.0176    0.0000 C   0  0  1  0  0  0  0  0  0  0  0  0
    4.4953   -4.4250    0.0000 H   0  0  0  0  0  0  0  0  0  0  0  0
    6.9656   -6.0456    0.0000 N   0  0  0  0  0  0  0  0  0  0  0  0
    6.5117   -7.9729    0.0000 C   0  0  0  0  0  0  0  0  0  0  0  0
    5.0754   -8.4051    0.0000 O   0  0  0  0  0  0  0  0  0  0  0  0
    7.6043   -9.0007    0.0000 C   0  0  1  0  0  0  0  0  0  0  0  0
    8.2794  -10.3401    0.0000 H   0  0  0  0  0  0  0  0  0  0  0  0
    9.0406   -8.5684    0.0000 N   0  0  0  0  0  0  0  0  0  0  0  0
   10.1332   -9.5962    0.0000 C   0  0  0  0  0  0  0  0  0  0  0  0
    9.7894  -11.0562    0.0000 O   0  0  0  0  0  0  0  0  0  0  0  0
   11.5695   -9.1639    0.0000 O   0  0  0  0  0  0  0  0  0  0  0  0
   12.6621  -10.1917    0.0000 C   0  0  0  0  0  0  0  0  0  0  0  0
    6.4024   -9.8981    0.0000 C   0  0  0  0  0  0  0  0  0  0  0  0
    6.5787  -11.3877    0.0000 C   0  0  0  0  0  0  0  0  0  0  0  0
    5.0242   -9.3060    0.0000 C   0  0  0  0  0  0  0  0  0  0  0  0
    8.4027   -5.6128    0.0000 C   0  0  2  0  0  0  0  0  0  0  0  0
    9.4968   -6.6390    0.0000 H   0  0  0  0  0  0  0  0  0  0  0  0
    8.7405   -4.1594    0.0000 C   0  0  0  0  0  0  0  0  0  0  0  0
    7.6482   -3.1314    0.0000 C   0  0  0  0  0  0  0  0  0  0  0  0
    6.2179   -3.5569    0.0000 C   0  0  1  0  0  0  0  0  0  0  0  0
    5.1273   -2.5271    0.0000 H   0  0  0  0  0  0  0  0  0  0  0  0
    6.9951   -4.9199    0.0000 C   0  0  0  0  0  0  0  0  0  0  0  0
   -4.3065   -8.2255    0.0000 C   0  0  0  0  0  0  0  0  0  0  0  0
   -5.3971   -7.1957    0.0000 F   0  0  0  0  0  0  0  0  0  0  0  0
   -3.3959   -7.0335    0.0000 F   0  0  0  0  0  0  0  0  0  0  0  0
  2  1  1  1  0  0  0 
  2  3  1  0  0  0  0 
  3  4  2  0  0  0  0 
  4  5  1  4  0  0  0 
  4  6  1  0  0  0  0 
  6  7  1  0  0  0  0 
  2  8  1  0  0  0  0 
  8  9  1  0  0  0  0 
  8 10  1  0  0  0  0 
  2 11  1  6  0  0  0 
 11 12  2  0  0  0  0 
 11 13  1  0  0  0  0 
 13 14  1  0  0  0  0 
 14 15  1  0  0  0  0 
 15 16  1  0  0  0  0 
 16 17  1  0  0  0  0 
 15 17  1  0  0  0  0 
 15 18  1  0  0  0  0 
 18 19  1  0  0  0  0 
 13 19  1  0  0  0  0 
 19 20  1  1  0  0  0 
 19 21  1  6  0  0  0 
 21 22  2  0  0  0  0 
 22 23  1  0  0  0  0 
 23 24  2  0  0  0  0 
 24 25  1  0  0  0  0 
 21 25  1  0  0  0  0 
 24 26  1  0  0  0  0 
 26 27  2  0  0  0  0 
 27 28  1  0  0  0  0 
 28 29  2  0  0  0  0 
 29 30  1  0  0  0  0 
 30 31  2  0  0  0  0 
 26 31  1  0  0  0  0 
 29 32  1  0  0  0  0 
 32 33  2  0  0  0  0 
 33 34  1  0  0  0  0 
 34 35  2  0  0  0  0 
 35 36  1  0  0  0  0 
 36 37  2  0  0  0  0 
 32 37  1  0  0  0  0 
 35 38  1  0  0  0  0 
 38 39  2  0  0  0  0 
 39 40  1  0  0  0  0 
 40 41  2  0  0  0  0 
 41 42  1  0  0  0  0 
 42 43  2  0  0  0  0 
 38 43  1  0  0  0  0 
 41 44  1  0  0  0  0 
 44 45  2  0  0  0  0 
 45 46  1  0  0  0  0 
 40 46  1  0  0  0  0 
 47 45  1  6  0  0  0 
 47 48  1  1  0  0  0 
 47 49  1  0  0  0  0 
 49 50  1  0  0  0  0 
 50 51  2  0  0  0  0 
 50 52  1  0  0  0  0 
 52 53  1  6  0  0  0 
 52 54  1  1  0  0  0 
 54 55  2  0  0  0  0 
 55 56  1  4  0  0  0 
 55 57  1  0  0  0  0 
 57 58  1  0  0  0  0 
 52 59  1  0  0  0  0 
 59 60  1  0  0  0  0 
 59 61  1  0  0  0  0 
 49 62  1  0  0  0  0 
 62 63  1  6  0  0  0 
 62 64  1  0  0  0  0 
 64 65  1  0  0  0  0 
 65 66  1  0  0  0  0 
 47 66  1  0  0  0  0 
 66 67  1  6  0  0  0 
 66 68  1  0  0  0  0 
 62 68  1  0  0  0  0 
 33 69  1  0  0  0  0 
 28 69  1  0  0  0  0 
 69 70  1  0  0  0  0 
 69 71  1  0  0  0  0 
M  END
> <SMILES>
[H][C@](N=C(O)OC)(C(C)C)C(=O)N1CC2(CC2)C[C@@]1([H])C1=NC=C(N1)C1=CC2=C(C=C1)C1=C(C=C(C=C1)C1=CC3=C(C=C1)N=C(N3)[C@@]1([H])N(C(=O)[C@@]([H])(N=C(O)OC)C(C)C)[C@]3([H])CC[C@@]1([H])C3)C2(F)F

$$$$

  CDK     06141809482D

 38 41  0  0  0  0  0  0  0  0999 V2000
    9.0943    0.7510    0.0000 C   0  0  0  0  0  0  0  0  0  0  0  0
    9.0943   -0.7490    0.0000 C   0  0  0  0  0  0  0  0  0  0  0  0
   10.3934   -1.4990    0.0000 C   0  0  0  0  0  0  0  0  0  0  0  0
    7.7953   -1.4990    0.0000 O   0  0  0  0  0  0  0  0  0  0  0  0
    7.7953   -2.9990    0.0000 C   0  0  0  0  0  0  0  0  0  0  0  0
    6.4957   -3.7496    0.0000 C   0  0  0  0  0  0  0  0  0  0  0  0
    5.1968   -2.9994    0.0000 N   0  0  0  0  0  0  0  0  0  0  0  0
    3.8976   -3.7492    0.0000 C   0  0  0  0  0  0  0  0  0  0  0  0
    3.8971   -5.2500    0.0000 N   0  0  0  0  0  0  0  0  0  0  0  0
    2.5976   -6.0008    0.0000 C   0  0  0  0  0  0  0  0  0  0  0  0
    1.2986   -5.2508    0.0000 C   0  0  0  0  0  0  0  0  0  0  0  0
   -0.0006   -6.0006    0.0000 Cl  0  0  0  0  0  0  0  0  0  0  0  0
    1.2990   -3.7500    0.0000 C   0  0  0  0  0  0  0  0  0  0  0  0
    2.5986   -2.9992    0.0000 N   0  0  0  0  0  0  0  0  0  0  0  0
   -0.0000   -3.0000    0.0000 N   0  0  0  0  0  0  0  0  0  0  0  0
   -1.2990   -3.7500    0.0000 C   0  0  0  0  0  0  0  0  0  0  0  0
   -1.2993   -5.2500    0.0000 C   0  0  0  0  0  0  0  0  0  0  0  0
   -2.5994   -5.9998    0.0000 C   0  0  0  0  0  0  0  0  0  0  0  0
   -3.8893   -5.2496    0.0000 C   0  0  0  0  0  0  0  0  0  0  0  0
   -3.8890   -3.7496    0.0000 C   0  0  0  0  0  0  0  0  0  0  0  0
   -2.5989   -2.9998    0.0000 C   0  0  0  0  0  0  0  0  0  0  0  0
   -2.6012   -1.4998    0.0000 S   0  0  0  0  0  0  0  0  0  0  0  0
   -1.1236   -1.7580    0.0000 O   0  0  0  0  0  0  0  0  0  0  0  0
   -2.0903   -0.0895    0.0000 O   0  0  0  0  0  0  0  0  0  0  0  0
   -3.9014   -0.7518    0.0000 C   0  0  0  0  0  0  0  0  0  0  0  0
   -5.1993   -1.5037    0.0000 C   0  0  0  0  0  0  0  0  0  0  0  0
   -3.9036    0.7482    0.0000 C   0  0  0  0  0  0  0  0  0  0  0  0
    6.4949   -5.2504    0.0000 C   0  0  0  0  0  0  0  0  0  0  0  0
    7.7939   -6.0006    0.0000 C   0  0  0  0  0  0  0  0  0  0  0  0
    7.7939   -7.5006    0.0000 C   0  0  0  0  0  0  0  0  0  0  0  0
    9.0935   -5.2500    0.0000 C   0  0  0  0  0  0  0  0  0  0  0  0
    9.0942   -3.7492    0.0000 C   0  0  0  0  0  0  0  0  0  0  0  0
   10.3924   -6.0002    0.0000 C   0  0  0  0  0  0  0  0  0  0  0  0
   10.3917   -7.5010    0.0000 C   0  0  0  0  0  0  0  0  0  0  0  0
   11.6906   -8.2512    0.0000 C   0  0  0  0  0  0  0  0  0  0  0  0
   12.9903   -7.5006    0.0000 N   0  0  0  0  0  0  0  0  0  0  0  0
   12.9910   -5.9998    0.0000 C   0  0  0  0  0  0  0  0  0  0  0  0
   11.6921   -5.2496    0.0000 C   0  0  0  0  0  0  0  0  0  0  0  0
  1  2  1  0  0  0  0 
  2  3  1  0  0  0  0 
  2  4  1  0  0  0  0 
  4  5  1  0  0  0  0 
  5  6  2  0  0  0  0 
  6  7  1  0  0  0  0 
  7  8  1  0  0  0  0 
  8  9  2  0  0  0  0 
  9 10  1  0  0  0  0 
 10 11  2  0  0  0  0 
 11 12  1  0  0  0  0 
 11 13  1  0  0  0  0 
 13 14  1  4  0  0  0 
  8 14  1  0  0  0  0 
 13 15  2  0  0  0  0 
 15 16  1  0  0  0  0 
 16 17  2  0  0  0  0 
 17 18  1  0  0  0  0 
 18 19  2  0  0  0  0 
 19 20  1  0  0  0  0 
 20 21  2  0  0  0  0 
 16 21  1  0  0  0  0 
 21 22  1  0  0  0  0 
 22 23  2  0  0  0  0 
 22 24  2  0  0  0  0 
 22 25  1  0  0  0  0 
 25 26  1  0  0  0  0 
 25 27  1  0  0  0  0 
  6 28  1  0  0  0  0 
 28 29  2  0  0  0  0 
 29 30  1  0  0  0  0 
 29 31  1  0  0  0  0 
 31 32  2  0  0  0  0 
  5 32  1  0  0  0  0 
 31 33  1  0  0  0  0 
 33 34  1  0  0  0  0 
 34 35  1  0  0  0  0 
 35 36  1  0  0  0  0 
 36 37  1  0  0  0  0 
 37 38  1  0  0  0  0 
 33 38  1  0  0  0  0 
M  END
> <SMILES>
CC(C)OC1=C(NC2=NC=C(Cl)C(N2)=NC2=CC=CC=C2S(=O)(=O)C(C)C)C=C(C)C(=C1)C1CCNCC1

$$$$

  CDK     06141809482D

 54 58  0  0  1  0  0  0  0  0999 V2000
    1.2003   12.1745    0.0000 C   0  0  0  0  0  0  0  0  0  0  0  0
    0.5932   10.8029    0.0000 C   0  0  0  0  0  0  0  0  0  0  0  0
   -0.8982   10.6428    0.0000 C   0  0  0  0  0  0  0  0  0  0  0  0
    1.4776    9.5913    0.0000 C   0  0  0  0  0  0  0  0  0  0  0  0
    1.0147    8.1722    0.0000 N   0  0  0  0  0  0  0  0  0  0  0  0
    2.2280    7.2902    0.0000 C   0  0  0  0  0  0  0  0  0  0  0  0
    2.2282    5.7902    0.0000 C   0  0  0  0  0  0  0  0  0  0  0  0
    3.5274    5.0404    0.0000 N   0  0  0  0  0  0  0  0  0  0  0  0
    4.8263    5.7906    0.0000 C   0  0  0  0  0  0  0  0  0  0  0  0
    3.5276    3.5404    0.0000 C   0  0  0  0  0  0  0  0  0  0  0  0
    2.2287    2.7902    0.0000 O   0  0  0  0  0  0  0  0  0  0  0  0
    4.8268    2.7906    0.0000 N   0  0  0  0  0  0  0  0  0  0  0  0
    4.8270    1.2906    0.0000 C   0  0  1  0  0  0  0  0  0  0  0  0
    3.5281    0.5404    0.0000 C   0  0  0  0  0  0  0  0  0  0  0  0
    2.2289    1.2902    0.0000 C   0  0  0  0  0  0  0  0  0  0  0  0
    0.9300    0.5400    0.0000 N   0  0  0  0  0  0  0  0  0  0  0  0
    0.9300   -0.9600    0.0000 C   0  0  0  0  0  0  0  0  0  0  0  0
   -0.3700   -1.7100    0.0000 C   0  0  0  0  0  0  0  0  0  0  0  0
   -1.6700   -0.9600    0.0000 O   0  0  0  0  0  0  0  0  0  0  0  0
   -1.6700    0.5400    0.0000 C   0  0  0  0  0  0  0  0  0  0  0  0
   -0.3700    1.2900    0.0000 C   0  0  0  0  0  0  0  0  0  0  0  0
    6.1262    0.5408    0.0000 C   0  0  0  0  0  0  0  0  0  0  0  0
    6.1264   -0.9592    0.0000 O   0  0  0  0  0  0  0  0  0  0  0  0
    7.4251    1.2910    0.0000 N   0  0  0  0  0  0  0  0  0  0  0  0
    8.7242    0.5412    0.0000 C   0  0  2  0  0  0  0  0  0  0  0  0
   10.0231    1.2915    0.0000 C   0  0  0  0  0  0  0  0  0  0  0  0
   11.3223    0.5417    0.0000 C   0  0  0  0  0  0  0  0  0  0  0  0
   12.6212    1.2919    0.0000 C   0  0  2  0  0  0  0  0  0  0  0  0
   12.6210    2.7919    0.0000 C   0  0  0  0  0  0  0  0  0  0  0  0
   11.3218    3.5417    0.0000 C   0  0  0  0  0  0  0  0  0  0  0  0
   11.3221    5.0425    0.0000 C   0  0  0  0  0  0  0  0  0  0  0  0
   10.0229    5.7923    0.0000 C   0  0  0  0  0  0  0  0  0  0  0  0
    8.7235    5.0412    0.0000 C   0  0  0  0  0  0  0  0  0  0  0  0
    8.7233    3.5404    0.0000 C   0  0  0  0  0  0  0  0  0  0  0  0
   10.0224    2.7906    0.0000 C   0  0  0  0  0  0  0  0  0  0  0  0
   13.9204    0.5421    0.0000 N   0  0  0  0  0  0  0  0  0  0  0  0
   15.2193    1.2923    0.0000 C   0  0  0  0  0  0  0  0  0  0  0  0
   15.2191    2.7923    0.0000 O   0  0  0  0  0  0  0  0  0  0  0  0
   16.5185    0.5425    0.0000 O   0  0  0  0  0  0  0  0  0  0  0  0
   17.8174    1.2927    0.0000 C   0  0  0  0  0  0  0  0  0  0  0  0
   19.1165    0.5429    0.0000 C   0  0  0  0  0  0  0  0  0  0  0  0
   20.4780    1.1548    0.0000 C   0  0  0  0  0  0  0  0  0  0  0  0
   21.4846    0.0428    0.0000 N   0  0  0  0  0  0  0  0  0  0  0  0
   20.7406   -1.2512    0.0000 C   0  0  0  0  0  0  0  0  0  0  0  0
   19.2687   -0.9514    0.0000 S   0  0  0  0  0  0  0  0  0  0  0  0
    8.7245   -0.9588    0.0000 C   0  0  0  0  0  0  0  0  0  0  0  0
   10.0236   -1.7085    0.0000 C   0  0  0  0  0  0  0  0  0  0  0  0
   11.3230   -0.9575    0.0000 C   0  0  0  0  0  0  0  0  0  0  0  0
   12.6222   -1.7073    0.0000 C   0  0  0  0  0  0  0  0  0  0  0  0
   12.6219   -3.2081    0.0000 C   0  0  0  0  0  0  0  0  0  0  0  0
   11.3225   -3.9592    0.0000 C   0  0  0  0  0  0  0  0  0  0  0  0
   10.0234   -3.2094    0.0000 C   0  0  0  0  0  0  0  0  0  0  0  0
    3.4350    8.1683    0.0000 C   0  0  0  0  0  0  0  0  0  0  0  0
    2.9796    9.5997    0.0000 S   0  0  0  0  0  0  0  0  0  0  0  0
  1  2  1  0  0  0  0 
  2  3  1  0  0  0  0 
  2  4  1  0  0  0  0 
  4  5  2  0  0  0  0 
  5  6  1  0  0  0  0 
  6  7  1  0  0  0  0 
  7  8  1  0  0  0  0 
  8  9  1  0  0  0  0 
  8 10  1  0  0  0  0 
 10 11  2  0  0  0  0 
 10 12  1  0  0  0  0 
 13 12  1  6  0  0  0 
 13 14  1  0  0  0  0 
 14 15  1  0  0  0  0 
 15 16  1  0  0  0  0 
 16 17  1  0  0  0  0 
 17 18  1  0  0  0  0 
 18 19  1  0  0  0  0 
 19 20  1  0  0  0  0 
 20 21  1  0  0  0  0 
 16 21  1  0  0  0  0 
 13 22  1  0  0  0  0 
 22 23  2  0  0  0  0 
 22 24  1  0  0  0  0 
 25 24  1  6  0  0  0 
 25 26  1  0  0  0  0 
 26 27  1  0  0  0  0 
 27 28  1  0  0  0  0 
 28 29  1  0  0  0  0 
 29 30  1  0  0  0  0 
 30 31  2  0  0  0  0 
 31 32  1  0  0  0  0 
 32 33  2  0  0  0  0 
 33 34  1  0  0  0  0 
 34 35  2  0  0  0  0 
 30 35  1  0  0  0  0 
 28 36  1  6  0  0  0 
 36 37  1  0  0  0  0 
 37 38  2  0  0  0  0 
 37 39  1  0  0  0  0 
 39 40  1  0  0  0  0 
 40 41  1  0  0  0  0 
 41 42  2  0  0  0  0 
 42 43  1  0  0  0  0 
 43 44  2  0  0  0  0 
 44 45  1  0  0  0  0 
 41 45  1  0  0  0  0 
 25 46  1  0  0  0  0 
 46 47  1  0  0  0  0 
 47 48  2  0  0  0  0 
 48 49  1  0  0  0  0 
 49 50  2  0  0  0  0 
 50 51  1  0  0  0  0 
 51 52  2  0  0  0  0 
 47 52  1  0  0  0  0 
  6 53  2  0  0  0  0 
 53 54  1  0  0  0  0 
  4 54  1  0  0  0  0 
M  END
> <SMILES>
CC(C)C1=NC(CN(C)C(=O)N[C@@H](CCN2CCOCC2)C(=O)N[C@H](CC[C@H](CC2=CC=CC=C2)NC(=O)OCC2=CN=CS2)CC2=CC=CC=C2)=CS1

$$$$

  CDK     06141809482D

 37 40  0  0  1  0  0  0  0  0999 V2000
   11.6004    2.5986    0.0000 C   0  0  0  0  0  0  0  0  0  0  0  0
   10.8502    1.2996    0.0000 N   0  0  0  0  0  0  0  0  0  0  0  0
   11.6000    0.0005    0.0000 C   0  0  0  0  0  0  0  0  0  0  0  0
    9.3502    1.2999    0.0000 C   0  0  0  0  0  0  0  0  0  0  0  0
    8.6004    2.5990    0.0000 O   0  0  0  0  0  0  0  0  0  0  0  0
    8.6000    0.0010    0.0000 C   0  0  1  0  0  0  0  0  0  0  0  0
    9.3500   -1.2990    0.0000 C   0  0  0  0  0  0  0  0  0  0  0  0
    8.6000   -2.5990    0.0000 C   0  0  0  0  0  0  0  0  0  0  0  0
    7.1000   -2.5990    0.0000 C   0  0  2  0  0  0  0  0  0  0  0  0
    6.3498   -3.8980    0.0000 N   0  0  0  0  0  0  0  0  0  0  0  0
    7.0996   -5.1971    0.0000 C   0  0  0  0  0  0  0  0  0  0  0  0
    8.5996   -5.1974    0.0000 O   0  0  0  0  0  0  0  0  0  0  0  0
    6.3494   -6.4960    0.0000 C   0  0  0  0  0  0  0  0  0  0  0  0
    4.8494   -6.4958    0.0000 O   0  0  0  0  0  0  0  0  0  0  0  0
    7.0992   -7.7952    0.0000 N   0  0  0  0  0  0  0  0  0  0  0  0
    6.3490   -9.0941    0.0000 C   0  0  0  0  0  0  0  0  0  0  0  0
    4.8481   -9.0941    0.0000 N   0  0  0  0  0  0  0  0  0  0  0  0
    4.0969  -10.3934    0.0000 C   0  0  0  0  0  0  0  0  0  0  0  0
    4.8465  -11.6927    0.0000 C   0  0  0  0  0  0  0  0  0  0  0  0
    4.0963  -12.9916    0.0000 Cl  0  0  0  0  0  0  0  0  0  0  0  0
    6.3473  -11.6927    0.0000 C   0  0  0  0  0  0  0  0  0  0  0  0
    7.0985  -10.3934    0.0000 C   0  0  0  0  0  0  0  0  0  0  0  0
    6.3500   -1.2990    0.0000 C   0  0  1  0  0  0  0  0  0  0  0  0
    7.1000    0.0010    0.0000 C   0  0  0  0  0  0  0  0  0  0  0  0
    4.8500   -1.2990    0.0000 N   0  0  0  0  0  0  0  0  0  0  0  0
    4.1000   -0.0000    0.0000 C   0  0  0  0  0  0  0  0  0  0  0  0
    4.8500    1.2990    0.0000 O   0  0  0  0  0  0  0  0  0  0  0  0
    2.6000    0.0000    0.0000 C   0  0  0  0  0  0  0  0  0  0  0  0
    1.7200   -1.2100    0.0000 N   0  0  0  0  0  0  0  0  0  0  0  0
    0.2900   -0.7500    0.0000 C   0  0  0  0  0  0  0  0  0  0  0  0
    0.2900    0.7500    0.0000 C   0  0  0  0  0  0  0  0  0  0  0  0
   -1.0100    1.5000    0.0000 C   0  0  0  0  0  0  0  0  0  0  0  0
   -2.3100    0.7500    0.0000 N   0  0  0  0  0  0  0  0  0  0  0  0
   -3.6089    1.5002    0.0000 C   0  0  0  0  0  0  0  0  0  0  0  0
   -2.3100   -0.7500    0.0000 C   0  0  0  0  0  0  0  0  0  0  0  0
   -1.0100   -1.5000    0.0000 C   0  0  0  0  0  0  0  0  0  0  0  0
    1.7200    1.2100    0.0000 S   0  0  0  0  0  0  0  0  0  0  0  0
  1  2  1  0  0  0  0 
  2  3  1  0  0  0  0 
  2  4  1  0  0  0  0 
  4  5  2  0  0  0  0 
  6  4  1  1  0  0  0 
  6  7  1  0  0  0  0 
  7  8  1  0  0  0  0 
  8  9  1  0  0  0  0 
  9 10  1  6  0  0  0 
 10 11  1  0  0  0  0 
 11 12  2  0  0  0  0 
 11 13  1  0  0  0  0 
 13 14  2  0  0  0  0 
 13 15  1  0  0  0  0 
 15 16  1  0  0  0  0 
 16 17  2  0  0  0  0 
 17 18  1  0  0  0  0 
 18 19  2  0  0  0  0 
 19 20  1  0  0  0  0 
 19 21  1  0  0  0  0 
 21 22  2  0  0  0  0 
 16 22  1  0  0  0  0 
  9 23  1  0  0  0  0 
 23 24  1  0  0  0  0 
  6 24  1  0  0  0  0 
 23 25  1  6  0  0  0 
 25 26  1  0  0  0  0 
 26 27  2  0  0  0  0 
 26 28  1  0  0  0  0 
 28 29  2  0  0  0  0 
 29 30  1  0  0  0  0 
 30 31  2  0  0  0  0 
 31 32  1  0  0  0  0 
 32 33  1  0  0  0  0 
 33 34  1  0  0  0  0 
 33 35  1  0  0  0  0 
 35 36  1  0  0  0  0 
 30 36  1  0  0  0  0 
 31 37  1  0  0  0  0 
 28 37  1  0  0  0  0 
M  END
> <SMILES>
CN(C)C(=O)[C@H]1CC[C@H](NC(=O)C(=O)NC2=NC=C(Cl)C=C2)[C@@H](C1)NC(=O)C1=NC2=C(CN(C)CC2)S1

$$$$

  CDK     06141809482D

 32 36  0  0  0  0  0  0  0  0999 V2000
    1.9936   -0.0472    0.0000 O   0  0  0  0  0  0  0  0  0  0  0  0
    1.4326    1.3440    0.0000 C   0  0  0  0  0  0  0  0  0  0  0  0
    1.3814    2.8431    0.0000 C   0  0  0  0  0  0  0  0  0  0  0  0
    0.0565    3.5482    0.0000 C   0  0  0  0  0  0  0  0  0  0  0  0
    0.0052    5.0473    0.0000 C   0  0  0  0  0  0  0  0  0  0  0  0
    1.2788    5.8413    0.0000 C   0  0  0  0  0  0  0  0  0  0  0  0
    2.6037    5.1362    0.0000 C   0  0  0  0  0  0  0  0  0  0  0  0
    2.6550    3.6371    0.0000 C   0  0  0  0  0  0  0  0  0  0  0  0
    2.9001    1.6548    0.0000 C   0  0  0  0  0  0  0  0  0  0  0  0
    3.3644    3.0820    0.0000 C   0  0  0  0  0  0  0  0  0  0  0  0
    4.8319    3.3928    0.0000 C   0  0  0  0  0  0  0  0  0  0  0  0
    5.8350    2.2764    0.0000 C   0  0  0  0  0  0  0  0  0  0  0  0
    5.3706    0.8492    0.0000 C   0  0  0  0  0  0  0  0  0  0  0  0
    3.9032    0.5384    0.0000 C   0  0  0  0  0  0  0  0  0  0  0  0
   -0.2472    0.2959    0.0000 C   0  0  0  0  0  0  0  0  0  0  0  0
   -1.6172   -0.2541    0.0000 C   0  0  0  0  0  0  0  0  0  0  0  0
   -1.9472   -1.6241    0.0000 C   0  0  0  0  0  0  0  0  0  0  0  0
   -0.5672   -1.0541    0.0000 N   0  0  0  0  0  0  0  0  0  0  0  0
   -0.6050   -2.5536    0.0000 C   0  0  0  0  0  0  0  0  0  0  0  0
   -1.9226   -3.2706    0.0000 C   0  0  0  0  0  0  0  0  0  0  0  0
   -1.9603   -4.7702    0.0000 O   0  0  0  0  0  0  0  0  0  0  0  0
   -3.2779   -5.4872    0.0000 C   0  0  0  0  0  0  0  0  0  0  0  0
   -3.3156   -6.9867    0.0000 C   0  0  0  0  0  0  0  0  0  0  0  0
   -2.0350   -7.7692    0.0000 C   0  0  0  0  0  0  0  0  0  0  0  0
   -2.0727   -9.2688    0.0000 C   0  0  0  0  0  0  0  0  0  0  0  0
   -3.3912   -9.9858    0.0000 C   0  0  0  0  0  0  0  0  0  0  0  0
   -4.6719   -9.2033    0.0000 C   0  0  0  0  0  0  0  0  0  0  0  0
   -4.6341   -7.7037    0.0000 C   0  0  0  0  0  0  0  0  0  0  0  0
   -0.7372    0.8459    0.0000 C   0  0  0  0  0  0  0  0  0  0  0  0
   -0.2472    1.9259    0.0000 C   0  0  0  0  0  0  0  0  0  0  0  0
    0.9328   -1.7641    0.0000 C   0  0  0  0  0  0  0  0  0  0  0  0
    1.1828   -0.4041    0.0000 C   0  0  0  0  0  0  0  0  0  0  0  0
  1  2  1  0  0  0  0 
  2  3  1  0  0  0  0 
  3  4  2  0  0  0  0 
  4  5  1  0  0  0  0 
  5  6  2  0  0  0  0 
  6  7  1  0  0  0  0 
  7  8  2  0  0  0  0 
  3  8  1  0  0  0  0 
  2  9  1  0  0  0  0 
  9 10  2  0  0  0  0 
 10 11  1  0  0  0  0 
 11 12  2  0  0  0  0 
 12 13  1  0  0  0  0 
 13 14  2  0  0  0  0 
  9 14  1  0  0  0  0 
  2 15  1  0  0  0  0 
 15 16  1  0  0  0  0 
 16 17  1  0  0  0  0 
 17 18  1  0  0  0  0 
 18 19  1  0  0  0  0 
 19 20  1  0  0  0  0 
 20 21  1  0  0  0  0 
 21 22  1  0  0  0  0 
 22 23  1  0  0  0  0 
 23 24  2  0  0  0  0 
 24 25  1  0  0  0  0 
 25 26  2  0  0  0  0 
 26 27  1  0  0  0  0 
 27 28  2  0  0  0  0 
 23 28  1  0  0  0  0 
 18 29  1  0  0  0  0 
 29 30  1  0  0  0  0 
 15 30  1  0  0  0  0 
 18 31  1  0  0  0  0 
 31 32  1  0  0  0  0 
 15 32  1  0  0  0  0 
M  CHG  1  18   1
M  END
> <SMILES>
OC(C1=CC=CC=C1)(C1=CC=CC=C1)C12CC[N+](CCOCC3=CC=CC=C3)(CC1)CC2

$$$$

  CDK     06141809482D

 30 33  0  0  0  0  0  0  0  0999 V2000
   -5.1981   -0.7504    0.0000 C   0  0  0  0  0  0  0  0  0  0  0  0
   -3.8989   -1.5002    0.0000 O   0  0  0  0  0  0  0  0  0  0  0  0
   -2.6000   -0.7500    0.0000 C   0  0  0  0  0  0  0  0  0  0  0  0
   -2.6000    0.7500    0.0000 C   0  0  0  0  0  0  0  0  0  0  0  0
   -1.3000    1.5000    0.0000 C   0  0  0  0  0  0  0  0  0  0  0  0
   -0.0000    0.7500    0.0000 C   0  0  0  0  0  0  0  0  0  0  0  0
    1.3000    1.5000    0.0000 C   0  0  0  0  0  0  0  0  0  0  0  0
    1.3000    3.0000    0.0000 O   0  0  0  0  0  0  0  0  0  0  0  0
    2.5990    3.7500    0.0000 C   0  0  0  0  0  0  0  0  0  0  0  0
    2.5993    5.2508    0.0000 C   0  0  0  0  0  0  0  0  0  0  0  0
    3.8987    6.0019    0.0000 C   0  0  0  0  0  0  0  0  0  0  0  0
    3.8982    7.5019    0.0000 Cl  0  0  0  0  0  0  0  0  0  0  0  0
    5.1978    5.2521    0.0000 C   0  0  0  0  0  0  0  0  0  0  0  0
    6.4969    6.0021    0.0000 N   0  0  0  0  0  0  0  0  0  0  0  0
    6.4969    7.5021    0.0000 C   0  0  0  0  0  0  0  0  0  0  0  0
    5.1978    8.2521    0.0000 O   0  0  0  0  0  0  0  0  0  0  0  0
    7.7959    8.2521    0.0000 N   0  0  0  0  0  0  0  0  0  0  0  0
    7.7959    9.7521    0.0000 C   0  0  0  0  0  0  0  0  0  0  0  0
    7.0453   11.0517    0.0000 C   0  0  0  0  0  0  0  0  0  0  0  0
    8.5461   11.0510    0.0000 C   0  0  0  0  0  0  0  0  0  0  0  0
    5.1976    3.7512    0.0000 C   0  0  0  0  0  0  0  0  0  0  0  0
    3.8982    3.0002    0.0000 C   0  0  0  0  0  0  0  0  0  0  0  0
    2.6000    0.7500    0.0000 C   0  0  0  0  0  0  0  0  0  0  0  0
    2.6000   -0.7500    0.0000 C   0  0  0  0  0  0  0  0  0  0  0  0
    1.3000   -1.5000    0.0000 N   0  0  0  0  0  0  0  0  0  0  0  0
   -0.0000   -0.7500    0.0000 C   0  0  0  0  0  0  0  0  0  0  0  0
   -1.3000   -1.5000    0.0000 C   0  0  0  0  0  0  0  0  0  0  0  0
   -3.8989    1.5002    0.0000 C   0  0  0  0  0  0  0  0  0  0  0  0
   -5.1981    0.7504    0.0000 O   0  0  0  0  0  0  0  0  0  0  0  0
   -3.8987    3.0002    0.0000 N   0  0  0  0  0  0  0  0  0  0  0  0
  1  2  1  0  0  0  0 
  2  3  1  0  0  0  0 
  3  4  2  0  0  0  0 
  4  5  1  0  0  0  0 
  5  6  2  0  0  0  0 
  6  7  1  0  0  0  0 
  7  8  1  0  0  0  0 
  8  9  1  0  0  0  0 
  9 10  2  0  0  0  0 
 10 11  1  0  0  0  0 
 11 12  1  0  0  0  0 
 11 13  2  0  0  0  0 
 13 14  1  0  0  0  0 
 14 15  1  0  0  0  0 
 15 16  1  4  0  0  0 
 15 17  2  0  0  0  0 
 17 18  1  0  0  0  0 
 18 19  1  0  0  0  0 
 19 20  1  0  0  0  0 
 18 20  1  0  0  0  0 
 13 21  1  0  0  0  0 
 21 22  2  0  0  0  0 
  9 22  1  0  0  0  0 
  7 23  2  0  0  0  0 
 23 24  1  0  0  0  0 
 24 25  2  0  0  0  0 
 25 26  1  0  0  0  0 
  6 26  1  0  0  0  0 
 26 27  2  0  0  0  0 
  3 27  1  0  0  0  0 
  4 28  1  0  0  0  0 
 28 29  1  0  0  0  0 
 28 30  2  0  0  0  0 
M  END
> <SMILES>
COC1=C(C=C2C(OC3=CC(Cl)=C(NC(O)=NC4CC4)C=C3)=CC=NC2=C1)C(O)=N

$$$$

  CDK     06141809482D

 40 44  0  0  0  0  0  0  0  0999 V2000
   -6.2070   -1.5006    0.0000 C   0  0  0  0  0  0  0  0  0  0  0  0
   -4.9081   -0.7504    0.0000 O   0  0  0  0  0  0  0  0  0  0  0  0
   -3.6089   -1.5002    0.0000 C   0  0  0  0  0  0  0  0  0  0  0  0
   -3.6087   -3.0002    0.0000 O   0  0  0  0  0  0  0  0  0  0  0  0
   -2.3100   -0.7500    0.0000 C   0  0  0  0  0  0  0  0  0  0  0  0
   -1.0100   -1.5000    0.0000 C   0  0  0  0  0  0  0  0  0  0  0  0
    0.2900   -0.7500    0.0000 C   0  0  0  0  0  0  0  0  0  0  0  0
    0.2900    0.7500    0.0000 C   0  0  0  0  0  0  0  0  0  0  0  0
   -1.0100    1.5000    0.0000 C   0  0  0  0  0  0  0  0  0  0  0  0
   -2.3100    0.7500    0.0000 C   0  0  0  0  0  0  0  0  0  0  0  0
    1.7200    1.2100    0.0000 C   0  0  0  0  0  0  0  0  0  0  0  0
    2.1853    2.6360    0.0000 C   0  0  0  0  0  0  0  0  0  0  0  0
    3.6529    2.9461    0.0000 N   0  0  0  0  0  0  0  0  0  0  0  0
    4.1182    4.3721    0.0000 C   0  0  0  0  0  0  0  0  0  0  0  0
    5.5751    4.6706    0.0000 C   0  0  0  0  0  0  0  0  0  0  0  0
    6.0292    6.1109    0.0000 C   0  0  0  0  0  0  0  0  0  0  0  0
    5.0265    7.2209    0.0000 C   0  0  0  0  0  0  0  0  0  0  0  0
    3.5602    6.8939    0.0000 C   0  0  0  0  0  0  0  0  0  0  0  0
    3.1060    5.4853    0.0000 C   0  0  0  0  0  0  0  0  0  0  0  0
    5.4818    8.6502    0.0000 N   0  0  0  0  0  0  0  0  0  0  0  0
    4.4716    9.7591    0.0000 C   0  0  0  0  0  0  0  0  0  0  0  0
    6.9472    8.9705    0.0000 C   0  0  0  0  0  0  0  0  0  0  0  0
    7.9573    7.8616    0.0000 O   0  0  0  0  0  0  0  0  0  0  0  0
    7.4024   10.3998    0.0000 C   0  0  0  0  0  0  0  0  0  0  0  0
    8.8678   10.7201    0.0000 N   0  0  0  0  0  0  0  0  0  0  0  0
    9.8787    9.6108    0.0000 C   0  0  0  0  0  0  0  0  0  0  0  0
   11.3451    9.9306    0.0000 C   0  0  0  0  0  0  0  0  0  0  0  0
   11.8005   11.3598    0.0000 N   0  0  0  0  0  0  0  0  0  0  0  0
   13.2659   11.6801    0.0000 C   0  0  0  0  0  0  0  0  0  0  0  0
   10.7897   12.4691    0.0000 C   0  0  0  0  0  0  0  0  0  0  0  0
    9.3233   12.1493    0.0000 C   0  0  0  0  0  0  0  0  0  0  0  0
    1.1830    3.7520    0.0000 C   0  0  0  0  0  0  0  0  0  0  0  0
   -0.2854    3.4413    0.0000 C   0  0  0  0  0  0  0  0  0  0  0  0
   -1.2877    4.5572    0.0000 C   0  0  0  0  0  0  0  0  0  0  0  0
   -0.8217    5.9839    0.0000 C   0  0  0  0  0  0  0  0  0  0  0  0
    0.6466    6.2946    0.0000 C   0  0  0  0  0  0  0  0  0  0  0  0
    1.6489    5.1786    0.0000 C   0  0  0  0  0  0  0  0  0  0  0  0
    2.6000   -0.0000    0.0000 C   0  0  0  0  0  0  0  0  0  0  0  0
    4.1000   -0.0000    0.0000 O   0  0  0  0  0  0  0  0  0  0  0  0
    1.7200   -1.2100    0.0000 N   0  0  0  0  0  0  0  0  0  0  0  0
  1  2  1  0  0  0  0 
  2  3  1  0  0  0  0 
  3  4  2  0  0  0  0 
  3  5  1  0  0  0  0 
  5  6  2  0  0  0  0 
  6  7  1  0  0  0  0 
  7  8  2  0  0  0  0 
  8  9  1  0  0  0  0 
  9 10  2  0  0  0  0 
  5 10  1  0  0  0  0 
  8 11  1  0  0  0  0 
 11 12  2  0  0  0  0 
 12 13  1  4  0  0  0 
 13 14  1  0  0  0  0 
 14 15  2  0  0  0  0 
 15 16  1  0  0  0  0 
 16 17  2  0  0  0  0 
 17 18  1  0  0  0  0 
 18 19  2  0  0  0  0 
 14 19  1  0  0  0  0 
 17 20  1  0  0  0  0 
 20 21  1  0  0  0  0 
 20 22  1  0  0  0  0 
 22 23  2  0  0  0  0 
 22 24  1  0  0  0  0 
 24 25  1  0  0  0  0 
 25 26  1  0  0  0  0 
 26 27  1  0  0  0  0 
 27 28  1  0  0  0  0 
 28 29  1  0  0  0  0 
 28 30  1  0  0  0  0 
 30 31  1  0  0  0  0 
 25 31  1  0  0  0  0 
 12 32  1  0  0  0  0 
 32 33  2  0  0  0  0 
 33 34  1  0  0  0  0 
 34 35  2  0  0  0  0 
 35 36  1  0  0  0  0 
 36 37  2  0  0  0  0 
 32 37  1  0  0  0  0 
 11 38  1  0  0  0  0 
 38 39  1  0  0  0  0 
 38 40  2  0  0  0  0 
  7 40  1  0  0  0  0 
M  END
> <SMILES>
COC(=O)C1=CC2=C(C=C1)C(=C(NC1=CC=C(C=C1)N(C)C(=O)CN1CCN(C)CC1)C1=CC=CC=C1)C(O)=N2

$$$$

  CDK     06141809482D

 54 59  0  0  1  0  0  0  0  0999 V2000
   22.2889   -3.2292    0.0000 C   0  0  0  0  0  0  0  0  0  0  0  0
   20.8381   -2.8482    0.0000 O   0  0  0  0  0  0  0  0  0  0  0  0
   19.7827   -3.9141    0.0000 C   0  0  0  0  0  0  0  0  0  0  0  0
   20.1782   -5.3611    0.0000 O   0  0  0  0  0  0  0  0  0  0  0  0
   18.3319   -3.5331    0.0000 N   0  0  0  0  0  0  0  0  0  0  0  0
   17.2766   -4.5991    0.0000 C   0  0  1  0  0  0  0  0  0  0  0  0
   17.6720   -6.0460    0.0000 C   0  0  0  0  0  0  0  0  0  0  0  0
   19.1228   -6.4270    0.0000 C   0  0  0  0  0  0  0  0  0  0  0  0
   16.6167   -7.1119    0.0000 C   0  0  0  0  0  0  0  0  0  0  0  0
   15.8258   -4.2181    0.0000 C   0  0  0  0  0  0  0  0  0  0  0  0
   15.4303   -2.7711    0.0000 O   0  0  0  0  0  0  0  0  0  0  0  0
   14.7704   -5.2840    0.0000 N   0  0  0  0  0  0  0  0  0  0  0  0
   15.0140   -6.7602    0.0000 C   0  0  0  0  0  0  0  0  0  0  0  0
   13.6824   -7.4554    0.0000 C   0  0  0  0  0  0  0  0  0  0  0  0
   12.6144   -6.4021    0.0000 C   0  0  0  0  0  0  0  0  0  0  0  0
   13.2839   -5.0539    0.0000 C   0  0  1  0  0  0  0  0  0  0  0  0
   12.5936   -3.7221    0.0000 C   0  0  0  0  0  0  0  0  0  0  0  0
   13.2798   -2.3907    0.0000 N   0  0  0  0  0  0  0  0  0  0  0  0
   12.2134   -1.3436    0.0000 C   0  0  0  0  0  0  0  0  0  0  0  0
   10.8657   -2.0293    0.0000 C   0  0  0  0  0  0  0  0  0  0  0  0
   11.1117   -3.5154    0.0000 N   0  0  0  0  0  0  0  0  0  0  0  0
    9.5270   -1.3526    0.0000 C   0  0  0  0  0  0  0  0  0  0  0  0
    9.4644    0.0952    0.0000 C   0  0  0  0  0  0  0  0  0  0  0  0
    8.1709    0.8145    0.0000 C   0  0  0  0  0  0  0  0  0  0  0  0
    6.9271   -0.0210    0.0000 C   0  0  0  0  0  0  0  0  0  0  0  0
    6.9898   -1.4688    0.0000 C   0  0  0  0  0  0  0  0  0  0  0  0
    8.2833   -2.1881    0.0000 C   0  0  0  0  0  0  0  0  0  0  0  0
    5.5884    0.6557    0.0000 C   0  0  0  0  0  0  0  0  0  0  0  0
    5.5258    2.1036    0.0000 C   0  0  0  0  0  0  0  0  0  0  0  0
    4.2323    2.8228    0.0000 C   0  0  0  0  0  0  0  0  0  0  0  0
    2.9885    1.9874    0.0000 C   0  0  0  0  0  0  0  0  0  0  0  0
    3.0512    0.5396    0.0000 C   0  0  0  0  0  0  0  0  0  0  0  0
    4.3447   -0.1797    0.0000 C   0  0  0  0  0  0  0  0  0  0  0  0
    1.6498    2.6641    0.0000 C   0  0  0  0  0  0  0  0  0  0  0  0
    0.3021    1.9784    0.0000 C   0  0  0  0  0  0  0  0  0  0  0  0
   -0.7643    3.0254    0.0000 N   0  0  0  0  0  0  0  0  0  0  0  0
   -0.0781    4.3569    0.0000 C   0  0  0  0  0  0  0  0  0  0  0  0
    1.4038    4.1502    0.0000 N   0  0  0  0  0  0  0  0  0  0  0  0
   -0.7683    5.6887    0.0000 C   0  0  2  0  0  0  0  0  0  0  0  0
   -0.0988    7.0369    0.0000 C   0  0  0  0  0  0  0  0  0  0  0  0
   -1.1668    8.0901    0.0000 C   0  0  0  0  0  0  0  0  0  0  0  0
   -2.4984    7.3950    0.0000 C   0  0  0  0  0  0  0  0  0  0  0  0
   -2.2548    5.9188    0.0000 N   0  0  0  0  0  0  0  0  0  0  0  0
   -3.3102    4.8529    0.0000 C   0  0  0  0  0  0  0  0  0  0  0  0
   -2.9148    3.4059    0.0000 O   0  0  0  0  0  0  0  0  0  0  0  0
   -4.7610    5.2338    0.0000 C   0  0  1  0  0  0  0  0  0  0  0  0
   -5.1565    6.6808    0.0000 N   0  0  0  0  0  0  0  0  0  0  0  0
   -6.6073    7.0618    0.0000 C   0  0  0  0  0  0  0  0  0  0  0  0
   -7.6626    5.9958    0.0000 O   0  0  0  0  0  0  0  0  0  0  0  0
   -7.0027    8.5087    0.0000 O   0  0  0  0  0  0  0  0  0  0  0  0
   -8.4535    8.8897    0.0000 C   0  0  0  0  0  0  0  0  0  0  0  0
   -5.8164    4.1679    0.0000 C   0  0  0  0  0  0  0  0  0  0  0  0
   -7.2672    4.5489    0.0000 C   0  0  0  0  0  0  0  0  0  0  0  0
   -5.4209    2.7210    0.0000 C   0  0  0  0  0  0  0  0  0  0  0  0
  1  2  1  0  0  0  0 
  2  3  1  0  0  0  0 
  3  4  2  0  0  0  0 
  3  5  1  0  0  0  0 
  6  5  1  1  0  0  0 
  6  7  1  0  0  0  0 
  7  8  1  0  0  0  0 
  7  9  1  0  0  0  0 
  6 10  1  0  0  0  0 
 10 11  2  0  0  0  0 
 10 12  1  0  0  0  0 
 12 13  1  0  0  0  0 
 13 14  1  0  0  0  0 
 14 15  1  0  0  0  0 
 15 16  1  0  0  0  0 
 12 16  1  0  0  0  0 
 16 17  1  1  0  0  0 
 17 18  2  0  0  0  0 
 18 19  1  0  0  0  0 
 19 20  2  0  0  0  0 
 20 21  1  0  0  0  0 
 17 21  1  0  0  0  0 
 20 22  1  0  0  0  0 
 22 23  2  0  0  0  0 
 23 24  1  0  0  0  0 
 24 25  2  0  0  0  0 
 25 26  1  0  0  0  0 
 26 27  2  0  0  0  0 
 22 27  1  0  0  0  0 
 25 28  1  0  0  0  0 
 28 29  2  0  0  0  0 
 29 30  1  0  0  0  0 
 30 31  2  0  0  0  0 
 31 32  1  0  0  0  0 
 32 33  2  0  0  0  0 
 28 33  1  0  0  0  0 
 31 34  1  0  0  0  0 
 34 35  2  0  0  0  0 
 35 36  1  0  0  0  0 
 36 37  2  0  0  0  0 
 37 38  1  0  0  0  0 
 34 38  1  0  0  0  0 
 39 37  1  1  0  0  0 
 39 40  1  0  0  0  0 
 40 41  1  0  0  0  0 
 41 42  1  0  0  0  0 
 42 43  1  0  0  0  0 
 39 43  1  0  0  0  0 
 43 44  1  0  0  0  0 
 44 45  2  0  0  0  0 
 44 46  1  0  0  0  0 
 46 47  1  6  0  0  0 
 47 48  1  0  0  0  0 
 48 49  2  0  0  0  0 
 48 50  1  0  0  0  0 
 50 51  1  0  0  0  0 
 46 52  1  0  0  0  0 
 52 53  1  0  0  0  0 
 52 54  1  0  0  0  0 
M  END
> <SMILES>
COC(=O)N[C@@H](C(C)C)C(=O)N1CCC[C@H]1C1=NC=C(N1)C1=CC=C(C=C1)C1=CC=C(C=C1)C1=CN=C(N1)[C@@H]1CCCN1C(=O)[C@@H](NC(=O)OC)C(C)C

$$$$

  CDK     06141809482D

 34 37  0  0  0  0  0  0  0  0999 V2000
   14.1597   -5.5516    0.0000 C   0  0  0  0  0  0  0  0  0  0  0  0
   12.8605   -6.3014    0.0000 O   0  0  0  0  0  0  0  0  0  0  0  0
   11.5616   -5.5512    0.0000 C   0  0  0  0  0  0  0  0  0  0  0  0
   11.5623   -4.0504    0.0000 C   0  0  0  0  0  0  0  0  0  0  0  0
   10.2634   -3.3002    0.0000 C   0  0  0  0  0  0  0  0  0  0  0  0
    8.9637   -4.0508    0.0000 C   0  0  0  0  0  0  0  0  0  0  0  0
    7.6648   -3.3006    0.0000 O   0  0  0  0  0  0  0  0  0  0  0  0
    6.3657   -4.0504    0.0000 C   0  0  0  0  0  0  0  0  0  0  0  0
    6.3652   -5.5512    0.0000 N   0  0  0  0  0  0  0  0  0  0  0  0
    5.0657   -6.3021    0.0000 C   0  0  0  0  0  0  0  0  0  0  0  0
    3.7666   -5.5521    0.0000 N   0  0  0  0  0  0  0  0  0  0  0  0
    3.7671   -4.0512    0.0000 C   0  0  0  0  0  0  0  0  0  0  0  0
    5.0666   -3.3004    0.0000 C   0  0  0  0  0  0  0  0  0  0  0  0
    2.4681   -3.3012    0.0000 N   0  0  0  0  0  0  0  0  0  0  0  0
    2.4681   -1.8012    0.0000 C   0  0  0  0  0  0  0  0  0  0  0  0
    1.1690   -4.0512    0.0000 C   0  0  0  0  0  0  0  0  0  0  0  0
   -0.1300   -3.3012    0.0000 C   0  0  0  0  0  0  0  0  0  0  0  0
   -1.4290   -4.0512    0.0000 O   0  0  0  0  0  0  0  0  0  0  0  0
   -2.7281   -3.3012    0.0000 C   0  0  0  0  0  0  0  0  0  0  0  0
   -2.7408   -1.7569    0.0000 C   0  0  0  0  0  0  0  0  0  0  0  0
   -4.0193   -1.0215    0.0000 C   0  0  0  0  0  0  0  0  0  0  0  0
   -5.3245   -1.7608    0.0000 C   0  0  0  0  0  0  0  0  0  0  0  0
   -6.6135   -0.9937    0.0000 C   0  0  0  0  0  0  0  0  0  0  0  0
   -7.9224   -1.7265    0.0000 C   0  0  0  0  0  0  0  0  0  0  0  0
   -9.2843   -1.0930    0.0000 S   0  0  0  0  0  0  0  0  0  0  0  0
  -10.2947   -2.2044    0.0000 C   0  0  0  0  0  0  0  0  0  0  0  0
  -11.7852   -2.0354    0.0000 O   0  0  0  0  0  0  0  0  0  0  0  0
   -9.5634   -3.5056    0.0000 N   0  0  0  0  0  0  0  0  0  0  0  0
   -8.0929   -3.2094    0.0000 C   0  0  0  0  0  0  0  0  0  0  0  0
   -6.9885   -4.2245    0.0000 O   0  0  0  0  0  0  0  0  0  0  0  0
   -5.3512   -3.2355    0.0000 C   0  0  0  0  0  0  0  0  0  0  0  0
   -4.0333   -4.0405    0.0000 C   0  0  0  0  0  0  0  0  0  0  0  0
    8.9630   -5.5516    0.0000 C   0  0  0  0  0  0  0  0  0  0  0  0
   10.2619   -6.3019    0.0000 C   0  0  0  0  0  0  0  0  0  0  0  0
  1  2  1  0  0  0  0 
  2  3  1  0  0  0  0 
  3  4  2  0  0  0  0 
  4  5  1  0  0  0  0 
  5  6  2  0  0  0  0 
  6  7  1  0  0  0  0 
  7  8  1  0  0  0  0 
  8  9  2  0  0  0  0 
  9 10  1  0  0  0  0 
 10 11  2  0  0  0  0 
 11 12  1  0  0  0  0 
 12 13  2  0  0  0  0 
  8 13  1  0  0  0  0 
 12 14  1  0  0  0  0 
 14 15  1  0  0  0  0 
 14 16  1  0  0  0  0 
 16 17  1  0  0  0  0 
 17 18  1  0  0  0  0 
 18 19  1  0  0  0  0 
 19 20  2  0  0  0  0 
 20 21  1  0  0  0  0 
 21 22  2  0  0  0  0 
 22 23  1  0  0  0  0 
 23 24  1  0  0  0  0 
 24 25  1  0  0  0  0 
 25 26  1  0  0  0  0 
 26 27  2  0  0  0  0 
 26 28  1  0  0  0  0 
 28 29  1  0  0  0  0 
 24 29  1  0  0  0  0 
 29 30  2  0  0  0  0 
 22 31  1  0  0  0  0 
 31 32  2  0  0  0  0 
 19 32  1  0  0  0  0 
  6 33  1  0  0  0  0 
 33 34  2  0  0  0  0 
  3 34  1  0  0  0  0 
M  END
> <SMILES>
COC1=CC=C(OC2=NC=NC(=C2)N(C)CCOC2=CC=C(CC3SC(=O)NC3=O)C=C2)C=C1

$$$$

  CDK     06141809482D

 37 40  0  0  1  0  0  0  0  0999 V2000
   10.3946    5.2506    0.0000 C   0  0  0  0  0  0  0  0  0  0  0  0
    9.0957    6.0008    0.0000 O   0  0  0  0  0  0  0  0  0  0  0  0
    7.7965    5.2510    0.0000 C   0  0  0  0  0  0  0  0  0  0  0  0
    7.7963    3.7510    0.0000 O   0  0  0  0  0  0  0  0  0  0  0  0
    6.4976    6.0012    0.0000 C   0  0  0  0  0  0  0  0  0  0  0  0
    6.4976    7.5012    0.0000 C   0  0  0  0  0  0  0  0  0  0  0  0
    7.7965    8.2515    0.0000 C   0  0  0  0  0  0  0  0  0  0  0  0
    5.1976    8.2512    0.0000 N   0  0  0  0  0  0  0  0  0  0  0  0
    3.8976    7.5012    0.0000 C   0  0  0  0  0  0  0  0  0  0  0  0
    2.5987    8.2515    0.0000 C   0  0  0  0  0  0  0  0  0  0  0  0
    3.8976    6.0012    0.0000 C   0  0  0  0  0  0  0  0  0  0  0  0
    5.1976    5.2512    0.0000 C   0  0  2  0  0  0  0  0  0  0  0  0
    5.1976    3.7512    0.0000 C   0  0  0  0  0  0  0  0  0  0  0  0
    3.9063    3.0034    0.0000 C   0  0  0  0  0  0  0  0  0  0  0  0
    3.9038    1.5034    0.0000 C   0  0  0  0  0  0  0  0  0  0  0  0
    5.1926    0.7513    0.0000 C   0  0  0  0  0  0  0  0  0  0  0  0
    6.4938    1.4991    0.0000 C   0  0  0  0  0  0  0  0  0  0  0  0
    6.4963    2.9991    0.0000 C   0  0  0  0  0  0  0  0  0  0  0  0
    7.7915    0.7467    0.0000 N   0  0  0  0  0  0  0  0  0  0  0  0
    7.7887   -0.7533    0.0000 O   0  0  0  0  0  0  0  0  0  0  0  0
    9.0919    1.4943    0.0000 O   0  0  0  0  0  0  0  0  0  0  0  0
    2.5987    5.2510    0.0000 C   0  0  0  0  0  0  0  0  0  0  0  0
    2.5989    3.7510    0.0000 O   0  0  0  0  0  0  0  0  0  0  0  0
    1.2995    6.0008    0.0000 O   0  0  0  0  0  0  0  0  0  0  0  0
    0.0006    5.2506    0.0000 C   0  0  2  0  0  0  0  0  0  0  0  0
   -1.2994    6.0006    0.0000 C   0  0  0  0  0  0  0  0  0  0  0  0
   -2.5994    5.2506    0.0000 C   0  0  0  0  0  0  0  0  0  0  0  0
   -2.5994    3.7506    0.0000 C   0  0  0  0  0  0  0  0  0  0  0  0
   -1.2994    3.0006    0.0000 N   0  0  0  0  0  0  0  0  0  0  0  0
   -1.2994    1.5006    0.0000 C   0  0  0  0  0  0  0  0  0  0  0  0
   -2.5984    0.7506    0.0000 C   0  0  0  0  0  0  0  0  0  0  0  0
   -2.5980   -0.7502    0.0000 C   0  0  0  0  0  0  0  0  0  0  0  0
   -3.8970   -1.5002    0.0000 C   0  0  0  0  0  0  0  0  0  0  0  0
   -5.1965   -0.7494    0.0000 C   0  0  0  0  0  0  0  0  0  0  0  0
   -5.1970    0.7515    0.0000 C   0  0  0  0  0  0  0  0  0  0  0  0
   -3.8980    1.5015    0.0000 C   0  0  0  0  0  0  0  0  0  0  0  0
    0.0006    3.7506    0.0000 C   0  0  0  0  0  0  0  0  0  0  0  0
  1  2  1  0  0  0  0 
  2  3  1  0  0  0  0 
  3  4  2  0  0  0  0 
  3  5  1  0  0  0  0 
  5  6  2  0  0  0  0 
  6  7  1  0  0  0  0 
  6  8  1  0  0  0  0 
  8  9  1  0  0  0  0 
  9 10  1  0  0  0  0 
  9 11  2  0  0  0  0 
 11 12  1  0  0  0  0 
  5 12  1  0  0  0  0 
 12 13  1  1  0  0  0 
 13 14  2  0  0  0  0 
 14 15  1  0  0  0  0 
 15 16  2  0  0  0  0 
 16 17  1  0  0  0  0 
 17 18  2  0  0  0  0 
 13 18  1  0  0  0  0 
 17 19  1  0  0  0  0 
 19 20  1  0  0  0  0 
 19 21  2  0  0  0  0 
 11 22  1  0  0  0  0 
 22 23  2  0  0  0  0 
 22 24  1  0  0  0  0 
 25 24  1  1  0  0  0 
 25 26  1  0  0  0  0 
 26 27  1  0  0  0  0 
 27 28  1  0  0  0  0 
 28 29  1  0  0  0  0 
 29 30  1  0  0  0  0 
 30 31  1  0  0  0  0 
 31 32  2  0  0  0  0 
 32 33  1  0  0  0  0 
 33 34  2  0  0  0  0 
 34 35  1  0  0  0  0 
 35 36  2  0  0  0  0 
 31 36  1  0  0  0  0 
 29 37  1  0  0  0  0 
 25 37  1  0  0  0  0 
M  CHG  1  19   1
M  CHG  1  20  -1
M  END
> <SMILES>
COC(=O)C1=C(C)NC(C)=C([C@@H]1C1=CC=CC(=C1)[N+]([O-])=O)C(=O)O[C@@H]1CCCN(CC2=CC=CC=C2)C1

$$$$

  CDK     06141809482D

 63 63  0  0  0  0  0  0  0  0999 V2000
   53.2615    0.7585    0.0000 C   0  0  0  0  0  0  0  0  0  0  0  0
   51.9624    1.5083    0.0000 O   0  0  0  0  0  0  0  0  0  0  0  0
   50.6634    0.7581    0.0000 C   0  0  0  0  0  0  0  0  0  0  0  0
   50.6634   -0.7419    0.0000 C   0  0  0  0  0  0  0  0  0  0  0  0
   51.9624   -1.4921    0.0000 O   0  0  0  0  0  0  0  0  0  0  0  0
   51.9621   -2.9921    0.0000 C   0  0  0  0  0  0  0  0  0  0  0  0
   49.3634   -1.4919    0.0000 C   0  0  0  0  0  0  0  0  0  0  0  0
   49.3634   -2.9919    0.0000 O   0  0  0  0  0  0  0  0  0  0  0  0
   48.0634   -0.7419    0.0000 C   0  0  0  0  0  0  0  0  0  0  0  0
   46.7645   -1.4921    0.0000 C   0  0  0  0  0  0  0  0  0  0  0  0
   45.4654   -0.7423    0.0000 C   0  0  0  0  0  0  0  0  0  0  0  0
   44.1665   -1.4925    0.0000 C   0  0  0  0  0  0  0  0  0  0  0  0
   44.1667   -2.9925    0.0000 C   0  0  0  0  0  0  0  0  0  0  0  0
   42.8673   -0.7427    0.0000 C   0  0  0  0  0  0  0  0  0  0  0  0
   41.5684   -1.4929    0.0000 C   0  0  0  0  0  0  0  0  0  0  0  0
   40.2692   -0.7431    0.0000 C   0  0  0  0  0  0  0  0  0  0  0  0
   38.9703   -1.4933    0.0000 C   0  0  0  0  0  0  0  0  0  0  0  0
   38.9705   -2.9933    0.0000 C   0  0  0  0  0  0  0  0  0  0  0  0
   37.6711   -0.7435    0.0000 C   0  0  0  0  0  0  0  0  0  0  0  0
   36.3722   -1.4938    0.0000 C   0  0  0  0  0  0  0  0  0  0  0  0
   35.0731   -0.7440    0.0000 C   0  0  0  0  0  0  0  0  0  0  0  0
   33.7741   -1.4942    0.0000 C   0  0  0  0  0  0  0  0  0  0  0  0
   33.7744   -2.9942    0.0000 C   0  0  0  0  0  0  0  0  0  0  0  0
   32.4750   -0.7444    0.0000 C   0  0  0  0  0  0  0  0  0  0  0  0
   31.1761   -1.4946    0.0000 C   0  0  0  0  0  0  0  0  0  0  0  0
   29.8769   -0.7448    0.0000 C   0  0  0  0  0  0  0  0  0  0  0  0
   28.5780   -1.4950    0.0000 C   0  0  0  0  0  0  0  0  0  0  0  0
   28.5782   -2.9950    0.0000 C   0  0  0  0  0  0  0  0  0  0  0  0
   27.2788   -0.7452    0.0000 C   0  0  0  0  0  0  0  0  0  0  0  0
   25.9799   -1.4954    0.0000 C   0  0  0  0  0  0  0  0  0  0  0  0
   24.6808   -0.7456    0.0000 C   0  0  0  0  0  0  0  0  0  0  0  0
   23.3818   -1.4958    0.0000 C   0  0  0  0  0  0  0  0  0  0  0  0
   23.3821   -2.9958    0.0000 C   0  0  0  0  0  0  0  0  0  0  0  0
   22.0827   -0.7460    0.0000 C   0  0  0  0  0  0  0  0  0  0  0  0
   20.7838   -1.4963    0.0000 C   0  0  0  0  0  0  0  0  0  0  0  0
   19.4846   -0.7465    0.0000 C   0  0  0  0  0  0  0  0  0  0  0  0
   18.1857   -1.4967    0.0000 C   0  0  0  0  0  0  0  0  0  0  0  0
   18.1859   -2.9967    0.0000 C   0  0  0  0  0  0  0  0  0  0  0  0
   16.8865   -0.7469    0.0000 C   0  0  0  0  0  0  0  0  0  0  0  0
   15.5876   -1.4971    0.0000 C   0  0  0  0  0  0  0  0  0  0  0  0
   14.2885   -0.7473    0.0000 C   0  0  0  0  0  0  0  0  0  0  0  0
   12.9895   -1.4975    0.0000 C   0  0  0  0  0  0  0  0  0  0  0  0
   12.9898   -2.9975    0.0000 C   0  0  0  0  0  0  0  0  0  0  0  0
   11.6904   -0.7477    0.0000 C   0  0  0  0  0  0  0  0  0  0  0  0
   10.3915   -1.4979    0.0000 C   0  0  0  0  0  0  0  0  0  0  0  0
    9.0923   -0.7481    0.0000 C   0  0  0  0  0  0  0  0  0  0  0  0
    7.7934   -1.4983    0.0000 C   0  0  0  0  0  0  0  0  0  0  0  0
    7.7936   -2.9983    0.0000 C   0  0  0  0  0  0  0  0  0  0  0  0
    6.4942   -0.7485    0.0000 C   0  0  0  0  0  0  0  0  0  0  0  0
    5.1953   -1.4988    0.0000 C   0  0  0  0  0  0  0  0  0  0  0  0
    3.8962   -0.7490    0.0000 C   0  0  0  0  0  0  0  0  0  0  0  0
    2.5972   -1.4992    0.0000 C   0  0  0  0  0  0  0  0  0  0  0  0
    2.5975   -2.9992    0.0000 C   0  0  0  0  0  0  0  0  0  0  0  0
    1.2981   -0.7494    0.0000 C   0  0  0  0  0  0  0  0  0  0  0  0
   -0.0008   -1.4996    0.0000 C   0  0  0  0  0  0  0  0  0  0  0  0
   -1.3000   -0.7498    0.0000 C   0  0  0  0  0  0  0  0  0  0  0  0
   -2.5989   -1.5000    0.0000 C   0  0  0  0  0  0  0  0  0  0  0  0
   -3.8981   -0.7502    0.0000 C   0  0  0  0  0  0  0  0  0  0  0  0
   -2.5987   -3.0000    0.0000 C   0  0  0  0  0  0  0  0  0  0  0  0
   48.0634    0.7581    0.0000 C   0  0  0  0  0  0  0  0  0  0  0  0
   46.7645    1.5083    0.0000 C   0  0  0  0  0  0  0  0  0  0  0  0
   49.3634    1.5081    0.0000 C   0  0  0  0  0  0  0  0  0  0  0  0
   49.3634    3.0081    0.0000 O   0  0  0  0  0  0  0  0  0  0  0  0
  1  2  1  0  0  0  0 
  2  3  1  0  0  0  0 
  3  4  2  0  0  0  0 
  4  5  1  0  0  0  0 
  5  6  1  0  0  0  0 
  4  7  1  0  0  0  0 
  7  8  2  0  0  0  0 
  7  9  1  0  0  0  0 
  9 10  1  0  0  0  0 
 10 11  1  0  0  0  0 
 11 12  2  0  0  0  0 
 12 13  1  4  0  0  0 
 12 14  1  0  0  0  0 
 14 15  1  0  0  0  0 
 15 16  1  0  0  0  0 
 16 17  2  0  0  0  0 
 17 18  1  4  0  0  0 
 17 19  1  0  0  0  0 
 19 20  1  0  0  0  0 
 20 21  1  0  0  0  0 
 21 22  2  0  0  0  0 
 22 23  1  4  0  0  0 
 22 24  1  0  0  0  0 
 24 25  1  0  0  0  0 
 25 26  1  0  0  0  0 
 26 27  2  0  0  0  0 
 27 28  1  4  0  0  0 
 27 29  1  0  0  0  0 
 29 30  1  0  0  0  0 
 30 31  1  0  0  0  0 
 31 32  2  0  0  0  0 
 32 33  1  4  0  0  0 
 32 34  1  0  0  0  0 
 34 35  1  0  0  0  0 
 35 36  1  0  0  0  0 
 36 37  2  0  0  0  0 
 37 38  1  4  0  0  0 
 37 39  1  0  0  0  0 
 39 40  1  0  0  0  0 
 40 41  1  0  0  0  0 
 41 42  2  0  0  0  0 
 42 43  1  4  0  0  0 
 42 44  1  0  0  0  0 
 44 45  1  0  0  0  0 
 45 46  1  0  0  0  0 
 46 47  2  0  0  0  0 
 47 48  1  4  0  0  0 
 47 49  1  0  0  0  0 
 49 50  1  0  0  0  0 
 50 51  1  0  0  0  0 
 51 52  2  0  0  0  0 
 52 53  1  4  0  0  0 
 52 54  1  0  0  0  0 
 54 55  1  0  0  0  0 
 55 56  1  0  0  0  0 
 56 57  2  0  0  0  0 
 57 58  1  0  0  0  0 
 57 59  1  0  0  0  0 
  9 60  2  0  0  0  0 
 60 61  1  0  0  0  0 
 60 62  1  0  0  0  0 
  3 62  1  0  0  0  0 
 62 63  2  0  0  0  0 
M  END
> <SMILES>
COC1=C(OC)C(=O)C(CC=C(/C)CCC=C(/C)CCC=C(/C)CCC=C(/C)CCC=C(/C)CCC=C(/C)CCC=C(/C)CCC=C(/C)CCC=C(/C)CCC=C(C)C)=C(C)C1=O

$$$$

  CDK     06141809482D

 35 38  0  0  1  0  0  0  0  0999 V2000
    2.7243    0.8430    0.0000 C   0  0  0  0  0  0  0  0  0  0  0  0
    1.7601   -0.3060    0.0000 C   0  0  1  0  0  0  0  0  0  0  0  0
    0.2829   -0.0456    0.0000 O   0  0  0  0  0  0  0  0  0  0  0  0
   -0.6812   -1.1946    0.0000 C   0  0  0  0  0  0  0  0  0  0  0  0
   -2.1585   -0.9342    0.0000 C   0  0  1  0  0  0  0  0  0  0  0  0
   -3.4575   -0.1842    0.0000 C   0  0  0  0  0  0  0  0  0  0  0  0
   -4.7565   -0.9342    0.0000 C   0  0  0  0  0  0  0  0  0  0  0  0
   -4.7565   -2.4342    0.0000 C   0  0  1  0  0  0  0  0  0  0  0  0
   -4.9133   -3.9259    0.0000 C   0  0  0  0  0  0  0  0  0  0  0  0
   -6.3805   -4.2378    0.0000 C   0  0  0  0  0  0  0  0  0  0  0  0
   -7.1305   -2.9388    0.0000 C   0  0  0  0  0  0  0  0  0  0  0  0
   -8.6223   -2.7820    0.0000 O   0  0  0  0  0  0  0  0  0  0  0  0
   -6.1269   -1.8240    0.0000 N   0  0  0  0  0  0  0  0  0  0  0  0
   -3.4575   -3.1842    0.0000 C   0  0  0  0  0  0  0  0  0  0  0  0
   -2.1585   -2.4342    0.0000 N   0  0  0  0  0  0  0  0  0  0  0  0
   -1.6454    0.4754    0.0000 C   0  0  0  0  0  0  0  0  0  0  0  0
   -2.6105    1.6248    0.0000 C   0  0  0  0  0  0  0  0  0  0  0  0
   -2.0975    3.0343    0.0000 C   0  0  0  0  0  0  0  0  0  0  0  0
   -0.6194    3.2945    0.0000 C   0  0  0  0  0  0  0  0  0  0  0  0
    0.3457    2.1451    0.0000 C   0  0  0  0  0  0  0  0  0  0  0  0
   -0.1673    0.7355    0.0000 C   0  0  0  0  0  0  0  0  0  0  0  0
    2.2732   -1.7156    0.0000 C   0  0  0  0  0  0  0  0  0  0  0  0
    1.3081   -2.8650    0.0000 C   0  0  0  0  0  0  0  0  0  0  0  0
    1.8211   -4.2745    0.0000 C   0  0  0  0  0  0  0  0  0  0  0  0
    3.2992   -4.5346    0.0000 C   0  0  0  0  0  0  0  0  0  0  0  0
    4.2643   -3.3853    0.0000 C   0  0  0  0  0  0  0  0  0  0  0  0
    3.7513   -1.9757    0.0000 C   0  0  0  0  0  0  0  0  0  0  0  0
    5.7415   -3.6460    0.0000 C   0  0  0  0  0  0  0  0  0  0  0  0
    6.2543   -5.0556    0.0000 F   0  0  0  0  0  0  0  0  0  0  0  0
    7.2187   -3.3857    0.0000 F   0  0  0  0  0  0  0  0  0  0  0  0
    5.7417   -2.1460    0.0000 F   0  0  0  0  0  0  0  0  0  0  0  0
    0.8571   -5.4237    0.0000 C   0  0  0  0  0  0  0  0  0  0  0  0
    1.3704   -6.8332    0.0000 F   0  0  0  0  0  0  0  0  0  0  0  0
   -0.1072   -4.2748    0.0000 F   0  0  0  0  0  0  0  0  0  0  0  0
   -0.4418   -6.1739    0.0000 F   0  0  0  0  0  0  0  0  0  0  0  0
  2  1  1  6  0  0  0 
  2  3  1  0  0  0  0 
  3  4  1  0  0  0  0 
  5  4  1  6  0  0  0 
  5  6  1  0  0  0  0 
  6  7  1  0  0  0  0 
  8  7  1  1  0  0  0 
  8  9  1  0  0  0  0 
  9 10  1  0  0  0  0 
 10 11  1  0  0  0  0 
 11 12  2  0  0  0  0 
 11 13  1  0  0  0  0 
  8 13  1  6  0  0  0 
  8 14  1  0  0  0  0 
 14 15  1  0  0  0  0 
  5 15  1  0  0  0  0 
  5 16  1  1  0  0  0 
 16 17  2  0  0  0  0 
 17 18  1  0  0  0  0 
 18 19  2  0  0  0  0 
 19 20  1  0  0  0  0 
 20 21  2  0  0  0  0 
 16 21  1  0  0  0  0 
  2 22  1  0  0  0  0 
 22 23  2  0  0  0  0 
 23 24  1  0  0  0  0 
 24 25  2  0  0  0  0 
 25 26  1  0  0  0  0 
 26 27  2  0  0  0  0 
 22 27  1  0  0  0  0 
 26 28  1  0  0  0  0 
 28 29  1  0  0  0  0 
 28 30  1  0  0  0  0 
 28 31  1  0  0  0  0 
 24 32  1  0  0  0  0 
 32 33  1  0  0  0  0 
 32 34  1  0  0  0  0 
 32 35  1  0  0  0  0 
M  END
> <SMILES>
C[C@@H](OC[C@]1(CC[C@]2(CCC(=O)N2)CN1)C1=CC=CC=C1)C1=CC(=CC(=C1)C(F)(F)F)C(F)(F)F

$$$$

  CDK     06141809482D

 65 70  0  0  1  0  0  0  0  0999 V2000
   -0.8858  -14.4572    0.0000 C   0  0  0  0  0  0  0  0  0  0  0  0
   -0.1333  -13.1596    0.0000 O   0  0  0  0  0  0  0  0  0  0  0  0
   -0.8807  -11.8591    0.0000 C   0  0  0  0  0  0  0  0  0  0  0  0
   -2.3807  -11.8562    0.0000 O   0  0  0  0  0  0  0  0  0  0  0  0
   -0.1282  -10.5616    0.0000 N   0  0  0  0  0  0  0  0  0  0  0  0
   -0.8757   -9.2611    0.0000 C   0  0  1  0  0  0  0  0  0  0  0  0
   -2.3757   -9.2581    0.0000 C   0  0  0  0  0  0  0  0  0  0  0  0
   -3.1282  -10.5557    0.0000 C   0  0  0  0  0  0  0  0  0  0  0  0
   -3.1231   -7.9576    0.0000 C   0  0  0  0  0  0  0  0  0  0  0  0
   -0.1231   -7.9635    0.0000 C   0  0  0  0  0  0  0  0  0  0  0  0
    1.3769   -7.9664    0.0000 O   0  0  0  0  0  0  0  0  0  0  0  0
   -0.8706   -6.6630    0.0000 N   0  0  0  0  0  0  0  0  0  0  0  0
   -2.3585   -6.5059    0.0000 C   0  0  0  0  0  0  0  0  0  0  0  0
   -2.6751   -5.0375    0.0000 C   0  0  0  0  0  0  0  0  0  0  0  0
   -1.3761   -4.2875    0.0000 C   0  0  0  0  0  0  0  0  0  0  0  0
   -0.2540   -5.2909    0.0000 C   0  0  1  0  0  0  0  0  0  0  0  0
    1.2132   -4.9791    0.0000 C   0  0  0  0  0  0  0  0  0  0  0  0
    2.2169   -6.0938    0.0000 O   0  0  0  0  0  0  0  0  0  0  0  0
    1.6767   -3.5525    0.0000 N   0  0  0  0  0  0  0  0  0  0  0  0
    3.1440   -3.2407    0.0000 C   0  0  0  0  0  0  0  0  0  0  0  0
    3.6080   -1.8134    0.0000 C   0  0  0  0  0  0  0  0  0  0  0  0
    5.0759   -1.5006    0.0000 C   0  0  0  0  0  0  0  0  0  0  0  0
    6.0798   -2.6152    0.0000 C   0  0  0  0  0  0  0  0  0  0  0  0
    5.6157   -4.0425    0.0000 C   0  0  0  0  0  0  0  0  0  0  0  0
    4.1478   -4.3552    0.0000 C   0  0  0  0  0  0  0  0  0  0  0  0
    7.5470   -2.3034    0.0000 C   0  0  2  0  0  0  0  0  0  0  0  0
    8.1495   -0.9378    0.0000 C   0  0  0  0  0  0  0  0  0  0  0  0
    9.6417   -1.0909    0.0000 C   0  0  0  0  0  0  0  0  0  0  0  0
    9.9543   -2.5504    0.0000 C   0  0  2  0  0  0  0  0  0  0  0  0
    8.6598   -3.3122    0.0000 N   0  0  0  0  0  0  0  0  0  0  0  0
    8.5067   -4.8044    0.0000 C   0  0  0  0  0  0  0  0  0  0  0  0
    9.7229   -5.6838    0.0000 C   0  0  0  0  0  0  0  0  0  0  0  0
    9.5705   -7.1768    0.0000 C   0  0  0  0  0  0  0  0  0  0  0  0
    8.2018   -7.7905    0.0000 C   0  0  0  0  0  0  0  0  0  0  0  0
    6.9855   -6.9112    0.0000 C   0  0  0  0  0  0  0  0  0  0  0  0
    7.1380   -5.4181    0.0000 C   0  0  0  0  0  0  0  0  0  0  0  0
    8.0486   -9.2827    0.0000 C   0  0  0  0  0  0  0  0  0  0  0  0
    9.2643  -10.1614    0.0000 C   0  0  0  0  0  0  0  0  0  0  0  0
    6.6057   -8.8728    0.0000 C   0  0  0  0  0  0  0  0  0  0  0  0
    7.3944  -10.6325    0.0000 C   0  0  0  0  0  0  0  0  0  0  0  0
   11.3277   -3.1537    0.0000 C   0  0  0  0  0  0  0  0  0  0  0  0
   11.4921   -4.6447    0.0000 C   0  0  0  0  0  0  0  0  0  0  0  0
   12.8665   -5.2476    0.0000 C   0  0  0  0  0  0  0  0  0  0  0  0
   14.0764   -4.3597    0.0000 C   0  0  0  0  0  0  0  0  0  0  0  0
   15.4498   -4.9630    0.0000 N   0  0  0  0  0  0  0  0  0  0  0  0
   16.6589   -4.0753    0.0000 C   0  0  0  0  0  0  0  0  0  0  0  0
   16.4947   -2.5843    0.0000 O   0  0  0  0  0  0  0  0  0  0  0  0
   18.0322   -4.6786    0.0000 C   0  0  2  0  0  0  0  0  0  0  0  0
   18.3575   -6.1483    0.0000 C   0  0  0  0  0  0  0  0  0  0  0  0
   19.8500   -6.2976    0.0000 C   0  0  0  0  0  0  0  0  0  0  0  0
   20.4501   -4.9206    0.0000 C   0  0  0  0  0  0  0  0  0  0  0  0
   19.3338   -3.9244    0.0000 N   0  0  0  0  0  0  0  0  0  0  0  0
   19.4861   -2.4322    0.0000 C   0  0  0  0  0  0  0  0  0  0  0  0
   18.2699   -1.5542    0.0000 O   0  0  0  0  0  0  0  0  0  0  0  0
   20.8545   -1.8180    0.0000 C   0  0  1  0  0  0  0  0  0  0  0  0
   22.0707   -2.6960    0.0000 N   0  0  0  0  0  0  0  0  0  0  0  0
   23.4392   -2.0817    0.0000 C   0  0  0  0  0  0  0  0  0  0  0  0
   23.5915   -0.5895    0.0000 O   0  0  0  0  0  0  0  0  0  0  0  0
   24.6554   -2.9597    0.0000 O   0  0  0  0  0  0  0  0  0  0  0  0
   26.0238   -2.3455    0.0000 C   0  0  0  0  0  0  0  0  0  0  0  0
   21.0068   -0.3257    0.0000 C   0  0  0  0  0  0  0  0  0  0  0  0
   22.3753    0.2885    0.0000 C   0  0  0  0  0  0  0  0  0  0  0  0
   19.7906    0.5523    0.0000 C   0  0  0  0  0  0  0  0  0  0  0  0
   13.9120   -2.8687    0.0000 C   0  0  0  0  0  0  0  0  0  0  0  0
   12.5376   -2.2657    0.0000 C   0  0  0  0  0  0  0  0  0  0  0  0
  1  2  1  0  0  0  0 
  2  3  1  0  0  0  0 
  3  4  2  0  0  0  0 
  3  5  1  0  0  0  0 
  6  5  1  1  0  0  0 
  6  7  1  0  0  0  0 
  7  8  1  0  0  0  0 
  7  9  1  0  0  0  0 
  6 10  1  0  0  0  0 
 10 11  2  0  0  0  0 
 10 12  1  0  0  0  0 
 12 13  1  0  0  0  0 
 13 14  1  0  0  0  0 
 14 15  1  0  0  0  0 
 15 16  1  0  0  0  0 
 12 16  1  0  0  0  0 
 16 17  1  1  0  0  0 
 17 18  2  0  0  0  0 
 17 19  1  0  0  0  0 
 19 20  1  0  0  0  0 
 20 21  2  0  0  0  0 
 21 22  1  0  0  0  0 
 22 23  2  0  0  0  0 
 23 24  1  0  0  0  0 
 24 25  2  0  0  0  0 
 20 25  1  0  0  0  0 
 26 23  1  6  0  0  0 
 26 27  1  0  0  0  0 
 27 28  1  0  0  0  0 
 28 29  1  0  0  0  0 
 29 30  1  0  0  0  0 
 26 30  1  0  0  0  0 
 30 31  1  0  0  0  0 
 31 32  2  0  0  0  0 
 32 33  1  0  0  0  0 
 33 34  2  0  0  0  0 
 34 35  1  0  0  0  0 
 35 36  2  0  0  0  0 
 31 36  1  0  0  0  0 
 34 37  1  0  0  0  0 
 37 38  1  0  0  0  0 
 37 39  1  0  0  0  0 
 37 40  1  0  0  0  0 
 29 41  1  1  0  0  0 
 41 42  2  0  0  0  0 
 42 43  1  0  0  0  0 
 43 44  2  0  0  0  0 
 44 45  1  0  0  0  0 
 45 46  1  0  0  0  0 
 46 47  2  0  0  0  0 
 48 46  1  1  0  0  0 
 48 49  1  0  0  0  0 
 49 50  1  0  0  0  0 
 50 51  1  0  0  0  0 
 51 52  1  0  0  0  0 
 48 52  1  0  0  0  0 
 52 53  1  0  0  0  0 
 53 54  2  0  0  0  0 
 53 55  1  0  0  0  0 
 55 56  1  6  0  0  0 
 56 57  1  0  0  0  0 
 57 58  2  0  0  0  0 
 57 59  1  0  0  0  0 
 59 60  1  0  0  0  0 
 55 61  1  0  0  0  0 
 61 62  1  0  0  0  0 
 61 63  1  0  0  0  0 
 44 64  1  0  0  0  0 
 64 65  2  0  0  0  0 
 41 65  1  0  0  0  0 
M  END
> <SMILES>
COC(=O)N[C@@H](C(C)C)C(=O)N1CCC[C@H]1C(=O)NC1=CC=C(C=C1)[C@@H]1CC[C@H](N1C1=CC=C(C=C1)C(C)(C)C)C1=CC=C(NC(=O)[C@@H]2CCCN2C(=O)[C@@H](NC(=O)OC)C(C)C)C=C1

$$$$

  CDK     06141809482D

 37 40  0  0  0  0  0  0  0  0999 V2000
    9.9901    5.6123    0.0000 C   0  0  0  0  0  0  0  0  0  0  0  0
    8.5225    5.3022    0.0000 O   0  0  0  0  0  0  0  0  0  0  0  0
    7.5201    6.4182    0.0000 C   0  0  0  0  0  0  0  0  0  0  0  0
    6.0517    6.1082    0.0000 C   0  0  0  0  0  0  0  0  0  0  0  0
    5.5866    4.6821    0.0000 N   0  0  0  0  0  0  0  0  0  0  0  0
    4.1191    4.3718    0.0000 C   0  0  0  0  0  0  0  0  0  0  0  0
    3.1158    5.4880    0.0000 N   0  0  0  0  0  0  0  0  0  0  0  0
    1.6473    5.1783    0.0000 C   0  0  0  0  0  0  0  0  0  0  0  0
    1.1820    3.7523    0.0000 C   0  0  0  0  0  0  0  0  0  0  0  0
    2.1853    2.6360    0.0000 C   0  0  0  0  0  0  0  0  0  0  0  0
    3.6538    2.9458    0.0000 N   0  0  0  0  0  0  0  0  0  0  0  0
    1.7200    1.2100    0.0000 C   0  0  0  0  0  0  0  0  0  0  0  0
    2.6000   -0.0000    0.0000 C   0  0  0  0  0  0  0  0  0  0  0  0
    1.7200   -1.2100    0.0000 N   0  0  0  0  0  0  0  0  0  0  0  0
    2.1853   -2.6360    0.0000 C   0  0  0  0  0  0  0  0  0  0  0  0
    0.2900   -0.7500    0.0000 C   0  0  0  0  0  0  0  0  0  0  0  0
    0.2900    0.7500    0.0000 C   0  0  0  0  0  0  0  0  0  0  0  0
   -1.0100    1.5000    0.0000 C   0  0  0  0  0  0  0  0  0  0  0  0
   -2.3100    0.7500    0.0000 C   0  0  0  0  0  0  0  0  0  0  0  0
   -2.3100   -0.7500    0.0000 C   0  0  0  0  0  0  0  0  0  0  0  0
   -1.0100   -1.5000    0.0000 C   0  0  0  0  0  0  0  0  0  0  0  0
    5.0483    7.2243    0.0000 C   0  0  0  0  0  0  0  0  0  0  0  0
    5.5133    8.6504    0.0000 C   0  0  0  0  0  0  0  0  0  0  0  0
    4.5110    9.7663    0.0000 N   0  0  0  0  0  0  0  0  0  0  0  0
    3.0434    9.4562    0.0000 C   0  0  0  0  0  0  0  0  0  0  0  0
    2.5781    8.0302    0.0000 O   0  0  0  0  0  0  0  0  0  0  0  0
    2.0411   10.5722    0.0000 C   0  0  0  0  0  0  0  0  0  0  0  0
    0.5734   10.2621    0.0000 C   0  0  0  0  0  0  0  0  0  0  0  0
    6.9818    8.9604    0.0000 C   0  0  0  0  0  0  0  0  0  0  0  0
    7.9852    7.8443    0.0000 C   0  0  0  0  0  0  0  0  0  0  0  0
    7.4468   10.3865    0.0000 N   0  0  0  0  0  0  0  0  0  0  0  0
    6.4443   11.5022    0.0000 C   0  0  0  0  0  0  0  0  0  0  0  0
    8.9144   10.6968    0.0000 C   0  0  0  0  0  0  0  0  0  0  0  0
    9.3794   12.1228    0.0000 C   0  0  0  0  0  0  0  0  0  0  0  0
   10.8470   12.4331    0.0000 N   0  0  0  0  0  0  0  0  0  0  0  0
   11.3120   13.8592    0.0000 C   0  0  0  0  0  0  0  0  0  0  0  0
   11.8495   11.3174    0.0000 C   0  0  0  0  0  0  0  0  0  0  0  0
  1  2  1  0  0  0  0 
  2  3  1  0  0  0  0 
  3  4  2  0  0  0  0 
  4  5  1  0  0  0  0 
  5  6  1  0  0  0  0 
  6  7  2  0  0  0  0 
  7  8  1  0  0  0  0 
  8  9  2  0  0  0  0 
  9 10  1  0  0  0  0 
 10 11  2  0  0  0  0 
  6 11  1  0  0  0  0 
 10 12  1  0  0  0  0 
 12 13  2  0  0  0  0 
 13 14  1  0  0  0  0 
 14 15  1  0  0  0  0 
 14 16  1  0  0  0  0 
 16 17  2  0  0  0  0 
 12 17  1  0  0  0  0 
 17 18  1  0  0  0  0 
 18 19  2  0  0  0  0 
 19 20  1  0  0  0  0 
 20 21  2  0  0  0  0 
 16 21  1  0  0  0  0 
  4 22  1  0  0  0  0 
 22 23  2  0  0  0  0 
 23 24  1  0  0  0  0 
 24 25  1  0  0  0  0 
 25 26  2  0  0  0  0 
 25 27  1  0  0  0  0 
 27 28  2  0  0  0  0 
 23 29  1  0  0  0  0 
 29 30  2  0  0  0  0 
  3 30  1  0  0  0  0 
 29 31  1  0  0  0  0 
 31 32  1  0  0  0  0 
 31 33  1  0  0  0  0 
 33 34  1  0  0  0  0 
 34 35  1  0  0  0  0 
 35 36  1  0  0  0  0 
 35 37  1  0  0  0  0 
M  END
> <SMILES>
COC1=C(NC2=NC=CC(=N2)C2=CN(C)C3=C2C=CC=C3)C=C(NC(=O)C=C)C(=C1)N(C)CCN(C)C

$$$$

  CDK     06141809482D

  6  5  0  0  0  0  0  0  0  0999 V2000
    0.0000    0.0000    0.0000 O   0  0  0  0  0  0  0  0  0  0  0  0
    1.2990   -0.7500    0.0000 C   0  0  0  0  0  0  0  0  0  0  0  0
    2.5981   -0.0000    0.0000 C   0  0  0  0  0  0  0  0  0  0  0  0
    2.5981    1.5000    0.0000 O   0  0  0  0  0  0  0  0  0  0  0  0
    3.8971   -0.7500    0.0000 C   0  0  0  0  0  0  0  0  0  0  0  0
    5.1962   -0.0000    0.0000 O   0  0  0  0  0  0  0  0  0  0  0  0
  1  2  1  0  0  0  0 
  2  3  1  0  0  0  0 
  3  4  1  0  0  0  0 
  3  5  1  0  0  0  0 
  5  6  1  0  0  0  0 
M  END
> <SMILES>
OCC(O)CO

$$$$

  CDK     06141809482D

 35 37  0  0  0  0  0  0  0  0999 V2000
    1.2995    3.7500    0.0000 C   0  0  0  0  0  0  0  0  0  0  0  0
    2.5987    3.0002    0.0000 C   0  0  0  0  0  0  0  0  0  0  0  0
    3.8976    3.7504    0.0000 C   0  0  0  0  0  0  0  0  0  0  0  0
    2.5989    1.5002    0.0000 N   0  0  0  0  0  0  0  0  0  0  0  0
    3.8981    0.7504    0.0000 C   0  0  0  0  0  0  0  0  0  0  0  0
    5.1970    1.5006    0.0000 C   0  0  0  0  0  0  0  0  0  0  0  0
    6.4962    0.7508    0.0000 C   0  0  0  0  0  0  0  0  0  0  0  0
    7.7951    1.5010    0.0000 C   0  0  0  0  0  0  0  0  0  0  0  0
    9.0942    0.7512    0.0000 O   0  0  0  0  0  0  0  0  0  0  0  0
   10.3931    1.5015    0.0000 C   0  0  0  0  0  0  0  0  0  0  0  0
   11.6923    0.7517    0.0000 C   0  0  0  0  0  0  0  0  0  0  0  0
   11.6925   -0.7483    0.0000 O   0  0  0  0  0  0  0  0  0  0  0  0
   12.9912    1.5019    0.0000 N   0  0  0  0  0  0  0  0  0  0  0  0
   14.2904    0.7521    0.0000 S   0  0  0  0  0  0  0  0  0  0  0  0
   15.5893    1.5023    0.0000 C   0  0  0  0  0  0  0  0  0  0  0  0
   13.3264   -0.3971    0.0000 O   0  0  0  0  0  0  0  0  0  0  0  0
   15.2547   -0.3968    0.0000 O   0  0  0  0  0  0  0  0  0  0  0  0
    1.3000    0.7500    0.0000 C   0  0  0  0  0  0  0  0  0  0  0  0
    0.0000    1.5000    0.0000 N   0  0  0  0  0  0  0  0  0  0  0  0
   -1.3000    0.7500    0.0000 C   0  0  0  0  0  0  0  0  0  0  0  0
   -2.5989    1.5002    0.0000 C   0  0  0  0  0  0  0  0  0  0  0  0
   -3.8986    0.7496    0.0000 C   0  0  0  0  0  0  0  0  0  0  0  0
   -5.1975    1.4998    0.0000 C   0  0  0  0  0  0  0  0  0  0  0  0
   -5.1968    3.0006    0.0000 C   0  0  0  0  0  0  0  0  0  0  0  0
   -3.8971    3.7512    0.0000 C   0  0  0  0  0  0  0  0  0  0  0  0
   -2.5982    3.0010    0.0000 C   0  0  0  0  0  0  0  0  0  0  0  0
   -1.3000   -0.7500    0.0000 C   0  0  0  0  0  0  0  0  0  0  0  0
    0.0000   -1.5000    0.0000 N   0  0  0  0  0  0  0  0  0  0  0  0
    1.3000   -0.7500    0.0000 C   0  0  0  0  0  0  0  0  0  0  0  0
   -2.5989   -1.5002    0.0000 C   0  0  0  0  0  0  0  0  0  0  0  0
   -2.5982   -3.0010    0.0000 C   0  0  0  0  0  0  0  0  0  0  0  0
   -3.8971   -3.7512    0.0000 C   0  0  0  0  0  0  0  0  0  0  0  0
   -5.1968   -3.0006    0.0000 C   0  0  0  0  0  0  0  0  0  0  0  0
   -5.1975   -1.4998    0.0000 C   0  0  0  0  0  0  0  0  0  0  0  0
   -3.8986   -0.7496    0.0000 C   0  0  0  0  0  0  0  0  0  0  0  0
  1  2  1  0  0  0  0 
  2  3  1  0  0  0  0 
  2  4  1  0  0  0  0 
  4  5  1  0  0  0  0 
  5  6  1  0  0  0  0 
  6  7  1  0  0  0  0 
  7  8  1  0  0  0  0 
  8  9  1  0  0  0  0 
  9 10  1  0  0  0  0 
 10 11  1  0  0  0  0 
 11 12  2  0  0  0  0 
 11 13  1  0  0  0  0 
 13 14  1  0  0  0  0 
 14 15  1  0  0  0  0 
 14 16  2  0  0  0  0 
 14 17  2  0  0  0  0 
  4 18  1  0  0  0  0 
 18 19  2  0  0  0  0 
 19 20  1  0  0  0  0 
 20 21  1  0  0  0  0 
 21 22  2  0  0  0  0 
 22 23  1  0  0  0  0 
 23 24  2  0  0  0  0 
 24 25  1  0  0  0  0 
 25 26  2  0  0  0  0 
 21 26  1  0  0  0  0 
 20 27  2  0  0  0  0 
 27 28  1  0  0  0  0 
 28 29  2  0  0  0  0 
 18 29  1  0  0  0  0 
 27 30  1  0  0  0  0 
 30 31  2  0  0  0  0 
 31 32  1  0  0  0  0 
 32 33  2  0  0  0  0 
 33 34  1  0  0  0  0 
 34 35  2  0  0  0  0 
 30 35  1  0  0  0  0 
M  END
> <SMILES>
CC(C)N(CCCCOCC(=O)NS(C)(=O)=O)C1=NC(C2=CC=CC=C2)=C(N=C1)C1=CC=CC=C1

$$$$

  CDK     06141809482D

 65 73  0  0  1  0  0  0  0  0999 V2000
   17.5582   -3.1626    0.0000 C   0  0  0  0  0  0  0  0  0  0  0  0
   16.0667   -3.3221    0.0000 O   0  0  0  0  0  0  0  0  0  0  0  0
   15.1829   -2.1101    0.0000 C   0  0  0  0  0  0  0  0  0  0  0  0
   15.7905   -0.7387    0.0000 O   0  0  0  0  0  0  0  0  0  0  0  0
   13.6914   -2.2696    0.0000 N   0  0  0  0  0  0  0  0  0  0  0  0
   12.8075   -1.0576    0.0000 C   0  0  1  0  0  0  0  0  0  0  0  0
   13.4152    0.3138    0.0000 C   0  0  0  0  0  0  0  0  0  0  0  0
   14.9067    0.4732    0.0000 C   0  0  0  0  0  0  0  0  0  0  0  0
   12.5314    1.5257    0.0000 C   0  0  0  0  0  0  0  0  0  0  0  0
   11.3160   -1.2171    0.0000 C   0  0  0  0  0  0  0  0  0  0  0  0
   10.4322   -0.0052    0.0000 O   0  0  0  0  0  0  0  0  0  0  0  0
   10.7084   -2.5885    0.0000 N   0  0  0  0  0  0  0  0  0  0  0  0
   11.4607   -3.8818    0.0000 C   0  0  0  0  0  0  0  0  0  0  0  0
   10.4630   -5.0048    0.0000 C   0  0  0  0  0  0  0  0  0  0  0  0
    9.0904   -4.3998    0.0000 C   0  0  0  0  0  0  0  0  0  0  0  0
    9.2371   -2.9017    0.0000 C   0  0  1  0  0  0  0  0  0  0  0  0
    8.1187   -1.9022    0.0000 C   0  0  0  0  0  0  0  0  0  0  0  0
    6.6600   -2.2356    0.0000 N   0  0  0  0  0  0  0  0  0  0  0  0
    5.9019   -0.9339    0.0000 C   0  0  0  0  0  0  0  0  0  0  0  0
    6.9180    0.1860    0.0000 C   0  0  0  0  0  0  0  0  0  0  0  0
    8.2869   -0.4138    0.0000 N   0  0  0  0  0  0  0  0  0  0  0  0
    4.4102   -0.7771    0.0000 C   0  0  0  0  0  0  0  0  0  0  0  0
    3.8000    0.5932    0.0000 C   0  0  0  0  0  0  0  0  0  0  0  0
    2.3083    0.7500    0.0000 C   0  0  0  0  0  0  0  0  0  0  0  0
    1.4266   -0.4635    0.0000 C   0  0  0  0  0  0  0  0  0  0  0  0
    2.0367   -1.8338    0.0000 C   0  0  0  0  0  0  0  0  0  0  0  0
    3.5285   -1.9906    0.0000 C   0  0  0  0  0  0  0  0  0  0  0  0
    0.0000    0.0000    0.0000 N   0  0  0  0  0  0  0  0  0  0  0  0
   -1.2990   -0.7500    0.0000 C   0  0  1  0  0  0  0  0  0  0  0  0
   -2.5981   -0.0000    0.0000 O   0  0  0  0  0  0  0  0  0  0  0  0
   -2.5981    1.5000    0.0000 C   0  0  0  0  0  0  0  0  0  0  0  0
   -1.2990    2.2500    0.0000 C   0  0  0  0  0  0  0  0  0  0  0  0
   -1.2990    3.7500    0.0000 C   0  0  0  0  0  0  0  0  0  0  0  0
   -2.5981    4.5000    0.0000 C   0  0  0  0  0  0  0  0  0  0  0  0
   -3.8971    3.7500    0.0000 C   0  0  0  0  0  0  0  0  0  0  0  0
   -3.8971    2.2500    0.0000 C   0  0  0  0  0  0  0  0  0  0  0  0
   -5.1962    4.5000    0.0000 C   0  0  0  0  0  0  0  0  0  0  0  0
   -6.5799    3.8902    0.0000 C   0  0  0  0  0  0  0  0  0  0  0  0
   -7.5865    4.9949    0.0000 N   0  0  0  0  0  0  0  0  0  0  0  0
   -6.8274    6.2862    0.0000 C   0  0  0  0  0  0  0  0  0  0  0  0
   -5.3593    5.9975    0.0000 N   0  0  0  0  0  0  0  0  0  0  0  0
   -7.4426    7.6542    0.0000 C   0  0  2  0  0  0  0  0  0  0  0  0
   -6.6993    8.9631    0.0000 C   0  0  0  0  0  0  0  0  0  0  0  0
   -7.7071   10.0741    0.0000 C   0  0  0  0  0  0  0  0  0  0  0  0
   -9.0753    9.4540    0.0000 C   0  0  0  0  0  0  0  0  0  0  0  0
   -8.9141    7.9665    0.0000 N   0  0  0  0  0  0  0  0  0  0  0  0
  -10.0270    6.9608    0.0000 C   0  0  0  0  0  0  0  0  0  0  0  0
   -9.7125    5.4942    0.0000 O   0  0  0  0  0  0  0  0  0  0  0  0
  -11.4544    7.4218    0.0000 C   0  0  1  0  0  0  0  0  0  0  0  0
  -11.7689    8.8885    0.0000 N   0  0  0  0  0  0  0  0  0  0  0  0
  -13.1963    9.3494    0.0000 C   0  0  0  0  0  0  0  0  0  0  0  0
  -14.3092    8.3438    0.0000 O   0  0  0  0  0  0  0  0  0  0  0  0
  -13.5108   10.8161    0.0000 O   0  0  0  0  0  0  0  0  0  0  0  0
  -14.9382   11.2771    0.0000 C   0  0  0  0  0  0  0  0  0  0  0  0
  -12.5673    6.4161    0.0000 C   0  0  0  0  0  0  0  0  0  0  0  0
  -13.9947    6.8771    0.0000 C   0  0  0  0  0  0  0  0  0  0  0  0
  -12.2528    4.9495    0.0000 C   0  0  0  0  0  0  0  0  0  0  0  0
    0.0000    1.5000    0.0000 C   0  0  0  0  0  0  0  0  0  0  0  0
    1.4266    1.9635    0.0000 C   0  0  0  0  0  0  0  0  0  0  0  0
   -1.2990   -2.2500    0.0000 C   0  0  0  0  0  0  0  0  0  0  0  0
    0.0010   -3.0000    0.0000 C   0  0  0  0  0  0  0  0  0  0  0  0
    0.0010   -4.5000    0.0000 C   0  0  0  0  0  0  0  0  0  0  0  0
   -1.2990   -5.2500    0.0000 C   0  0  0  0  0  0  0  0  0  0  0  0
   -2.5990   -4.5000    0.0000 C   0  0  0  0  0  0  0  0  0  0  0  0
   -2.5990   -3.0000    0.0000 C   0  0  0  0  0  0  0  0  0  0  0  0
  1  2  1  0  0  0  0 
  2  3  1  0  0  0  0 
  3  4  2  0  0  0  0 
  3  5  1  0  0  0  0 
  6  5  1  6  0  0  0 
  6  7  1  0  0  0  0 
  7  8  1  0  0  0  0 
  7  9  1  0  0  0  0 
  6 10  1  0  0  0  0 
 10 11  2  0  0  0  0 
 10 12  1  0  0  0  0 
 12 13  1  0  0  0  0 
 13 14  1  0  0  0  0 
 14 15  1  0  0  0  0 
 15 16  1  0  0  0  0 
 12 16  1  0  0  0  0 
 16 17  1  1  0  0  0 
 17 18  2  0  0  0  0 
 18 19  1  0  0  0  0 
 19 20  2  0  0  0  0 
 20 21  1  0  0  0  0 
 17 21  1  0  0  0  0 
 19 22  1  0  0  0  0 
 22 23  2  0  0  0  0 
 23 24  1  0  0  0  0 
 24 25  2  0  0  0  0 
 25 26  1  0  0  0  0 
 26 27  2  0  0  0  0 
 22 27  1  0  0  0  0 
 25 28  1  0  0  0  0 
 28 29  1  0  0  0  0 
 29 30  1  0  0  0  0 
 30 31  1  0  0  0  0 
 31 32  2  0  0  0  0 
 32 33  1  0  0  0  0 
 33 34  2  0  0  0  0 
 34 35  1  0  0  0  0 
 35 36  2  0  0  0  0 
 31 36  1  0  0  0  0 
 35 37  1  0  0  0  0 
 37 38  2  0  0  0  0 
 38 39  1  0  0  0  0 
 39 40  1  0  0  0  0 
 40 41  2  0  0  0  0 
 37 41  1  0  0  0  0 
 42 40  1  1  0  0  0 
 42 43  1  0  0  0  0 
 43 44  1  0  0  0  0 
 44 45  1  0  0  0  0 
 45 46  1  0  0  0  0 
 42 46  1  0  0  0  0 
 46 47  1  0  0  0  0 
 47 48  2  0  0  0  0 
 47 49  1  0  0  0  0 
 49 50  1  6  0  0  0 
 50 51  1  0  0  0  0 
 51 52  2  0  0  0  0 
 51 53  1  0  0  0  0 
 53 54  1  0  0  0  0 
 49 55  1  0  0  0  0 
 55 56  1  0  0  0  0 
 55 57  1  0  0  0  0 
 32 58  1  0  0  0  0 
 28 58  1  0  0  0  0 
 58 59  2  0  0  0  0 
 24 59  1  0  0  0  0 
 29 60  1  6  0  0  0 
 60 61  2  0  0  0  0 
 61 62  1  0  0  0  0 
 62 63  2  0  0  0  0 
 63 64  1  0  0  0  0 
 64 65  2  0  0  0  0 
 60 65  1  0  0  0  0 
M  END
> <SMILES>
COC(=O)N[C@@H](C(C)C)C(=O)N1CCC[C@H]1C1=NC(=CN1)C1=CC2=C(C=C1)N1[C@@H](OC3=C(C=CC(=C3)C3=CNC(=N3)[C@@H]3CCCN3C(=O)[C@@H](NC(=O)OC)C(C)C)C1=C2)C1=CC=CC=C1

$$$$

  CDK     06141809482D

 60 66  0  0  1  0  0  0  0  0999 V2000
   -7.3500    1.1296    0.0000 H   0  0  0  0  0  0  0  0  0  0  0  0
   -5.8500    1.1300    0.0000 C   0  0  2  0  0  0  0  0  0  0  0  0
   -5.8492   -0.3702    0.0000 C   0  0  0  0  0  0  0  0  0  0  0  0
   -4.5500    0.3800    0.0000 C   0  0  1  0  0  0  0  0  0  0  0  0
   -4.5517   -1.1200    0.0000 H   0  0  0  0  0  0  0  0  0  0  0  0
   -3.2500    1.1300    0.0000 O   0  0  0  0  0  0  0  0  0  0  0  0
   -1.9500    0.3800    0.0000 C   0  0  0  0  0  0  0  0  0  0  0  0
   -1.9543   -1.1200    0.0000 O   0  0  0  0  0  0  0  0  0  0  0  0
   -0.6500    1.1200    0.0000 N   0  0  0  0  0  0  0  0  0  0  0  0
    0.6500    0.3700    0.0000 C   0  0  2  0  0  0  0  0  0  0  0  0
   -0.3141   -0.7792    0.0000 H   0  0  0  0  0  0  0  0  0  0  0  0
    1.9500    1.1200    0.0000 C   0  0  0  0  0  0  0  0  0  0  0  0
    3.2489    0.3698    0.0000 O   0  0  0  0  0  0  0  0  0  0  0  0
    1.9500    2.6200    0.0000 N   0  0  0  0  0  0  0  0  0  0  0  0
    0.6500    3.3700    0.0000 C   0  0  0  0  0  0  0  0  0  0  0  0
    0.6500    4.8700    0.0000 C   0  0  1  0  0  0  0  0  0  0  0  0
    0.8950    6.3499    0.0000 H   0  0  0  0  0  0  0  0  0  0  0  0
    2.2462    5.1856    0.0000 C   0  0  0  0  0  0  0  0  0  0  0  0
    3.0206    3.8453    0.0000 C   0  0  1  0  0  0  0  0  0  0  0  0
    4.0355    2.7407    0.0000 H   0  0  0  0  0  0  0  0  0  0  0  0
    4.2296    4.7332    0.0000 C   0  0  0  0  0  0  0  0  0  0  0  0
    4.0651    6.2242    0.0000 O   0  0  0  0  0  0  0  0  0  0  0  0
    5.6030    4.1302    0.0000 N   0  0  0  0  0  0  0  0  0  0  0  0
    7.1988    5.3023    0.0000 C   0  0  2  0  0  0  0  0  0  0  0  0
    8.0092    6.5347    0.0000 C   0  0  0  0  0  0  0  0  0  0  0  0
    6.5343    6.6583    0.0000 C   0  0  1  0  0  0  0  0  0  0  0  0
    6.3903    8.1513    0.0000 H   0  0  0  0  0  0  0  0  0  0  0  0
    5.0911    6.2496    0.0000 C   0  0  0  0  0  0  0  0  0  0  0  0
    4.0155    7.2952    0.0000 C   0  0  0  0  0  0  0  0  0  0  0  0
    8.2866    4.2695    0.0000 C   0  0  0  0  0  0  0  0  0  0  0  0
    7.9361    2.8111    0.0000 O   0  0  0  0  0  0  0  0  0  0  0  0
    9.7250    4.6952    0.0000 N   0  0  0  0  0  0  0  0  0  0  0  0
   10.8128    3.6623    0.0000 S   0  0  0  0  0  0  0  0  0  0  0  0
    9.6067    2.7704    0.0000 O   0  0  0  0  0  0  0  0  0  0  0  0
   11.4817    2.3198    0.0000 O   0  0  0  0  0  0  0  0  0  0  0  0
   12.2511    4.0880    0.0000 C   0  0  0  0  0  0  0  0  0  0  0  0
   13.2843    5.1765    0.0000 C   0  0  0  0  0  0  0  0  0  0  0  0
   13.7095    3.7372    0.0000 C   0  0  0  0  0  0  0  0  0  0  0  0
   -0.6500    5.6200    0.0000 O   0  0  0  0  0  0  0  0  0  0  0  0
   -0.6500    7.1200    0.0000 C   0  0  0  0  0  0  0  0  0  0  0  0
   -1.9500    7.8800    0.0000 C   0  0  0  0  0  0  0  0  0  0  0  0
   -3.2500    7.1300    0.0000 C   0  0  0  0  0  0  0  0  0  0  0  0
   -3.2500    5.6300    0.0000 C   0  0  0  0  0  0  0  0  0  0  0  0
   -4.5500    4.8800    0.0000 C   0  0  0  0  0  0  0  0  0  0  0  0
   -4.5500    3.3800    0.0000 C   0  0  0  0  0  0  0  0  0  0  0  0
   -5.8500    2.6300    0.0000 C   0  0  0  0  0  0  0  0  0  0  0  0
   -1.9386    9.3798    0.0000 N   0  0  0  0  0  0  0  0  0  0  0  0
   -0.6357   10.1214    0.0000 C   0  0  0  0  0  0  0  0  0  0  0  0
   -0.6281   11.6214    0.0000 C   0  0  0  0  0  0  0  0  0  0  0  0
    0.6751   12.3646    0.0000 C   0  0  0  0  0  0  0  0  0  0  0  0
    1.9701   11.6075    0.0000 C   0  0  0  0  0  0  0  0  0  0  0  0
    3.2732   12.3503    0.0000 O   0  0  0  0  0  0  0  0  0  0  0  0
    3.2815   13.8503    0.0000 C   0  0  0  0  0  0  0  0  0  0  0  0
    1.9618   10.1073    0.0000 C   0  0  0  0  0  0  0  0  0  0  0  0
    0.6585    9.3648    0.0000 C   0  0  0  0  0  0  0  0  0  0  0  0
    0.6513    7.8657    0.0000 N   0  0  0  0  0  0  0  0  0  0  0  0
    1.6141   -0.7792    0.0000 C   0  0  0  0  0  0  0  0  0  0  0  0
    3.0913   -0.5189    0.0000 C   0  0  0  0  0  0  0  0  0  0  0  0
    2.1269   -2.1888    0.0000 C   0  0  0  0  0  0  0  0  0  0  0  0
    0.3149   -1.5290    0.0000 C   0  0  0  0  0  0  0  0  0  0  0  0
  2  1  1  6  0  0  0 
  2  3  1  0  0  0  0 
  3  4  1  0  0  0  0 
  2  4  1  0  0  0  0 
  4  5  1  1  0  0  0 
  4  6  1  0  0  0  0 
  6  7  1  0  0  0  0 
  7  8  1  0  0  0  0 
  7  9  2  0  0  0  0 
 10  9  1  6  0  0  0 
 10 11  1  1  0  0  0 
 10 12  1  0  0  0  0 
 12 13  2  0  0  0  0 
 12 14  1  0  0  0  0 
 14 15  1  0  0  0  0 
 15 16  1  0  0  0  0 
 16 17  1  1  0  0  0 
 16 18  1  0  0  0  0 
 18 19  1  0  0  0  0 
 14 19  1  0  0  0  0 
 19 20  1  6  0  0  0 
 19 21  1  1  0  0  0 
 21 22  1  4  0  0  0 
 21 23  2  0  0  0  0 
 24 23  1  1  0  0  0 
 24 25  1  0  0  0  0 
 25 26  1  0  0  0  0 
 24 26  1  0  0  0  0 
 26 27  1  1  0  0  0 
 26 28  1  6  0  0  0 
 28 29  2  0  0  0  0 
 24 30  1  6  0  0  0 
 30 31  1  4  0  0  0 
 30 32  2  0  0  0  0 
 32 33  1  0  0  0  0 
 33 34  2  0  0  0  0 
 33 35  2  0  0  0  0 
 33 36  1  0  0  0  0 
 36 37  1  0  0  0  0 
 37 38  1  0  0  0  0 
 36 38  1  0  0  0  0 
 16 39  1  0  0  0  0 
 39 40  1  0  0  0  0 
 40 41  2  0  0  0  0 
 41 42  1  0  0  0  0 
 42 43  1  0  0  0  0 
 43 44  1  0  0  0  0 
 44 45  1  0  0  0  0 
 45 46  1  0  0  0  0 
  2 46  1  0  0  0  0 
 41 47  1  0  0  0  0 
 47 48  2  0  0  0  0 
 48 49  1  0  0  0  0 
 49 50  2  0  0  0  0 
 50 51  1  0  0  0  0 
 51 52  1  0  0  0  0 
 52 53  1  0  0  0  0 
 51 54  2  0  0  0  0 
 54 55  1  0  0  0  0 
 48 55  1  0  0  0  0 
 55 56  2  0  0  0  0 
 40 56  1  0  0  0  0 
 10 57  1  0  0  0  0 
 57 58  1  0  0  0  0 
 57 59  1  0  0  0  0 
 57 60  1  0  0  0  0 
M  END
> <SMILES>
[H][C@@]12C[C@@]1([H])OC(O)=N[C@]([H])(C(=O)N1C[C@@]([H])(C[C@@]1([H])C(O)=N[C@@]1(C[C@@]1([H])C=C)C(O)=NS(=O)(=O)C1CC1)OC1=C(CCCCC2)N=C2C=CC(OC)=CC2=N1)C(C)(C)C

$$$$

  CDK     06141809482D

 61 68  0  0  0  0  0  0  0  0999 V2000
  -11.5860   -9.4917    0.0000 C   0  0  0  0  0  0  0  0  0  0  0  0
  -10.1089   -9.7527    0.0000 C   0  0  0  0  0  0  0  0  0  0  0  0
  -10.6223  -11.1621    0.0000 C   0  0  0  0  0  0  0  0  0  0  0  0
  -10.1082   -8.2519    0.0000 C   0  0  0  0  0  0  0  0  0  0  0  0
   -8.8086   -7.5012    0.0000 C   0  0  0  0  0  0  0  0  0  0  0  0
   -7.5096   -8.2515    0.0000 C   0  0  0  0  0  0  0  0  0  0  0  0
   -6.2104   -7.5019    0.0000 C   0  0  0  0  0  0  0  0  0  0  0  0
   -6.2099   -6.0019    0.0000 N   0  0  0  0  0  0  0  0  0  0  0  0
   -4.9100   -5.2517    0.0000 C   0  0  0  0  0  0  0  0  0  0  0  0
   -4.9088   -3.7508    0.0000 C   0  0  0  0  0  0  0  0  0  0  0  0
   -6.2075   -3.0002    0.0000 N   0  0  0  0  0  0  0  0  0  0  0  0
   -7.5074   -3.7504    0.0000 C   0  0  0  0  0  0  0  0  0  0  0  0
   -7.5086   -5.2512    0.0000 C   0  0  0  0  0  0  0  0  0  0  0  0
   -6.2070   -1.5002    0.0000 C   0  0  0  0  0  0  0  0  0  0  0  0
   -7.5064   -0.7492    0.0000 C   0  0  0  0  0  0  0  0  0  0  0  0
   -7.5066    0.7517    0.0000 C   0  0  0  0  0  0  0  0  0  0  0  0
   -6.2075    1.5015    0.0000 C   0  0  0  0  0  0  0  0  0  0  0  0
   -6.2070    3.0015    0.0000 C   0  0  0  0  0  0  0  0  0  0  0  0
   -4.9077    3.7510    0.0000 O   0  0  0  0  0  0  0  0  0  0  0  0
   -7.5058    3.7519    0.0000 N   0  0  0  0  0  0  0  0  0  0  0  0
   -7.5053    5.2519    0.0000 S   0  0  0  0  0  0  0  0  0  0  0  0
   -6.0282    4.9909    0.0000 O   0  0  0  0  0  0  0  0  0  0  0  0
   -6.9918    6.6612    0.0000 O   0  0  0  0  0  0  0  0  0  0  0  0
   -8.8041    6.0023    0.0000 C   0  0  0  0  0  0  0  0  0  0  0  0
  -10.1042    5.2525    0.0000 C   0  0  0  0  0  0  0  0  0  0  0  0
  -11.4041    6.0027    0.0000 C   0  0  0  0  0  0  0  0  0  0  0  0
  -11.4039    7.5027    0.0000 C   0  0  0  0  0  0  0  0  0  0  0  0
  -12.7027    8.2531    0.0000 N   0  0  0  0  0  0  0  0  0  0  0  0
  -12.7022    9.7531    0.0000 C   0  0  0  0  0  0  0  0  0  0  0  0
  -14.0010   10.5035    0.0000 C   0  0  0  0  0  0  0  0  0  0  0  0
  -15.3007    9.7531    0.0000 C   0  0  0  0  0  0  0  0  0  0  0  0
  -16.5995   10.5035    0.0000 C   0  0  0  0  0  0  0  0  0  0  0  0
  -16.5986   12.0044    0.0000 O   0  0  0  0  0  0  0  0  0  0  0  0
  -15.2988   12.7548    0.0000 C   0  0  0  0  0  0  0  0  0  0  0  0
  -14.0000   12.0044    0.0000 C   0  0  0  0  0  0  0  0  0  0  0  0
  -10.1037    8.2525    0.0000 C   0  0  0  0  0  0  0  0  0  0  0  0
   -8.8039    7.5023    0.0000 C   0  0  0  0  0  0  0  0  0  0  0  0
  -10.1035    9.7525    0.0000 N   0  0  0  0  0  0  0  0  0  0  0  0
  -11.4024   10.5027    0.0000 O   0  0  0  0  0  0  0  0  0  0  0  0
   -8.8043   10.5023    0.0000 O   0  0  0  0  0  0  0  0  0  0  0  0
   -4.9081    0.7504    0.0000 C   0  0  0  0  0  0  0  0  0  0  0  0
   -3.6089    1.5002    0.0000 O   0  0  0  0  0  0  0  0  0  0  0  0
   -2.3100    0.7500    0.0000 C   0  0  0  0  0  0  0  0  0  0  0  0
   -2.3100   -0.7500    0.0000 C   0  0  0  0  0  0  0  0  0  0  0  0
   -1.0100   -1.5000    0.0000 N   0  0  0  0  0  0  0  0  0  0  0  0
    0.2900   -0.7500    0.0000 C   0  0  0  0  0  0  0  0  0  0  0  0
    1.7200   -1.2100    0.0000 N   0  0  0  0  0  0  0  0  0  0  0  0
    2.6000    0.0000    0.0000 C   0  0  0  0  0  0  0  0  0  0  0  0
    1.7200    1.2100    0.0000 C   0  0  0  0  0  0  0  0  0  0  0  0
    0.2900    0.7500    0.0000 C   0  0  0  0  0  0  0  0  0  0  0  0
   -1.0100    1.5000    0.0000 C   0  0  0  0  0  0  0  0  0  0  0  0
   -4.9078   -0.7504    0.0000 C   0  0  0  0  0  0  0  0  0  0  0  0
   -7.5104   -9.7523    0.0000 C   0  0  0  0  0  0  0  0  0  0  0  0
   -8.8100  -10.5029    0.0000 C   0  0  0  0  0  0  0  0  0  0  0  0
   -6.2114  -10.5025    0.0000 C   0  0  0  0  0  0  0  0  0  0  0  0
   -6.2096  -11.9860    0.0000 C   0  0  0  0  0  0  0  0  0  0  0  0
   -4.9145  -12.7428    0.0000 C   0  0  0  0  0  0  0  0  0  0  0  0
   -3.6125  -12.0210    0.0000 C   0  0  0  0  0  0  0  0  0  0  0  0
   -2.3213  -12.7843    0.0000 Cl  0  0  0  0  0  0  0  0  0  0  0  0
   -3.6079  -10.5065    0.0000 C   0  0  0  0  0  0  0  0  0  0  0  0
   -4.9030   -9.7498    0.0000 C   0  0  0  0  0  0  0  0  0  0  0  0
  1  2  1  0  0  0  0 
  2  3  1  0  0  0  0 
  2  4  1  0  0  0  0 
  4  5  1  0  0  0  0 
  5  6  1  0  0  0  0 
  6  7  1  0  0  0  0 
  7  8  1  0  0  0  0 
  8  9  1  0  0  0  0 
  9 10  1  0  0  0  0 
 10 11  1  0  0  0  0 
 11 12  1  0  0  0  0 
 12 13  1  0  0  0  0 
  8 13  1  0  0  0  0 
 11 14  1  0  0  0  0 
 14 15  2  0  0  0  0 
 15 16  1  0  0  0  0 
 16 17  2  0  0  0  0 
 17 18  1  0  0  0  0 
 18 19  2  0  0  0  0 
 18 20  1  0  0  0  0 
 20 21  1  0  0  0  0 
 21 22  2  0  0  0  0 
 21 23  2  0  0  0  0 
 21 24  1  0  0  0  0 
 24 25  2  0  0  0  0 
 25 26  1  0  0  0  0 
 26 27  2  0  0  0  0 
 27 28  1  0  0  0  0 
 28 29  1  0  0  0  0 
 29 30  1  0  0  0  0 
 30 31  1  0  0  0  0 
 31 32  1  0  0  0  0 
 32 33  1  0  0  0  0 
 33 34  1  0  0  0  0 
 34 35  1  0  0  0  0 
 30 35  1  0  0  0  0 
 27 36  1  0  0  0  0 
 36 37  2  0  0  0  0 
 24 37  1  0  0  0  0 
 36 38  1  0  0  0  0 
 38 39  1  0  0  0  0 
 38 40  2  0  0  0  0 
 17 41  1  0  0  0  0 
 41 42  1  0  0  0  0 
 42 43  1  0  0  0  0 
 43 44  2  0  0  0  0 
 44 45  1  0  0  0  0 
 45 46  2  0  0  0  0 
 46 47  1  0  0  0  0 
 47 48  1  0  0  0  0 
 48 49  2  0  0  0  0 
 49 50  1  0  0  0  0 
 46 50  1  0  0  0  0 
 50 51  2  0  0  0  0 
 43 51  1  0  0  0  0 
 41 52  2  0  0  0  0 
 14 52  1  0  0  0  0 
  6 53  2  0  0  0  0 
 53 54  1  0  0  0  0 
  2 54  1  0  0  0  0 
 53 55  1  0  0  0  0 
 55 56  2  0  0  0  0 
 56 57  1  0  0  0  0 
 57 58  2  0  0  0  0 
 58 59  1  0  0  0  0 
 58 60  1  0  0  0  0 
 60 61  2  0  0  0  0 
 55 61  1  0  0  0  0 
M  CHG  1  38   1
M  CHG  1  39  -1
M  END
> <SMILES>
CC1(C)CCC(CN2CCN(CC2)C2=CC=C(C(=O)NS(=O)(=O)C3=CC=C(NCC4CCOCC4)C(=C3)[N+]([O-])=O)C(OC3=CN=C4NC=CC4=C3)=C2)=C(C1)C1=CC=C(Cl)C=C1

$$$$

  CDK     06141809482D

 32 35  0  0  1  0  0  0  0  0999 V2000
    7.6756    1.8941    0.0000 H   0  0  0  0  0  0  0  0  0  0  0  0
    8.5962    0.7098    0.0000 C   0  0  1  0  0  0  0  0  0  0  0  0
    9.0562   -0.7179    0.0000 C   0  0  0  0  0  0  0  0  0  0  0  0
    7.2700    0.0089    0.0000 C   0  0  0  0  0  0  0  0  0  0  0  0
    5.9323    0.6711    0.0000 N   0  0  0  0  0  0  0  0  0  0  0  0
    4.8850   -0.4027    0.0000 C   0  0  0  0  0  0  0  0  0  0  0  0
    5.5803   -1.7235    0.0000 C   0  0  0  0  0  0  0  0  0  0  0  0
    7.0623   -1.4787    0.0000 S   0  0  0  0  0  0  0  0  0  0  0  0
    3.4005   -0.1872    0.0000 C   0  0  0  0  0  0  0  0  0  0  0  0
    2.8804    1.1654    0.0000 C   0  0  0  0  0  0  0  0  0  0  0  0
    1.4252    1.4356    0.0000 C   0  0  0  0  0  0  0  0  0  0  0  0
    0.5120    0.2478    0.0000 C   0  0  0  0  0  0  0  0  0  0  0  0
    1.0321   -1.1048    0.0000 C   0  0  0  0  0  0  0  0  0  0  0  0
    2.4873   -1.3751    0.0000 C   0  0  0  0  0  0  0  0  0  0  0  0
   -0.9725    0.4633    0.0000 C   0  0  0  0  0  0  0  0  0  0  0  0
   -2.4569    0.6788    0.0000 N   0  0  0  0  0  0  0  0  0  0  0  0
    9.6027    1.8220    0.0000 C   0  0  2  0  0  0  0  0  0  0  0  0
   10.5232    0.6377    0.0000 O   0  0  0  0  0  0  0  0  0  0  0  0
    9.1427    3.2497    0.0000 C   0  0  0  0  0  0  0  0  0  0  0  0
    7.6762    3.5653    0.0000 N   0  0  0  0  0  0  0  0  0  0  0  0
    7.0771    4.9324    0.0000 C   0  0  0  0  0  0  0  0  0  0  0  0
    5.5846    4.7830    0.0000 N   0  0  0  0  0  0  0  0  0  0  0  0
    5.2683    3.3243    0.0000 C   0  0  0  0  0  0  0  0  0  0  0  0
    6.5609    2.5592    0.0000 N   0  0  0  0  0  0  0  0  0  0  0  0
   10.9288    2.5229    0.0000 C   0  0  0  0  0  0  0  0  0  0  0  0
   10.9852    4.0227    0.0000 C   0  0  0  0  0  0  0  0  0  0  0  0
    9.7150    4.8205    0.0000 F   0  0  0  0  0  0  0  0  0  0  0  0
   12.3118    4.7246    0.0000 C   0  0  0  0  0  0  0  0  0  0  0  0
   13.5820    3.9268    0.0000 C   0  0  0  0  0  0  0  0  0  0  0  0
   13.5256    2.4270    0.0000 C   0  0  0  0  0  0  0  0  0  0  0  0
   14.7958    1.6292    0.0000 F   0  0  0  0  0  0  0  0  0  0  0  0
   12.1990    1.7251    0.0000 C   0  0  0  0  0  0  0  0  0  0  0  0
  2  1  1  6  0  0  0 
  2  3  1  0  0  0  0 
  2  4  1  1  0  0  0 
  4  5  2  0  0  0  0 
  5  6  1  0  0  0  0 
  6  7  2  0  0  0  0 
  7  8  1  0  0  0  0 
  4  8  1  0  0  0  0 
  6  9  1  0  0  0  0 
  9 10  2  0  0  0  0 
 10 11  1  0  0  0  0 
 11 12  2  0  0  0  0 
 12 13  1  0  0  0  0 
 13 14  2  0  0  0  0 
  9 14  1  0  0  0  0 
 12 15  1  0  0  0  0 
 15 16  3  0  0  0  0 
  2 17  1  0  0  0  0 
 17 18  1  1  0  0  0 
 17 19  1  0  0  0  0 
 19 20  1  0  0  0  0 
 20 21  1  0  0  0  0 
 21 22  2  0  0  0  0 
 22 23  1  0  0  0  0 
 23 24  2  0  0  0  0 
 20 24  1  0  0  0  0 
 17 25  1  6  0  0  0 
 25 26  2  0  0  0  0 
 26 27  1  0  0  0  0 
 26 28  1  0  0  0  0 
 28 29  2  0  0  0  0 
 29 30  1  0  0  0  0 
 30 31  1  0  0  0  0 
 30 32  2  0  0  0  0 
 25 32  1  0  0  0  0 
M  END
> <SMILES>
[H][C@](C)(C1=NC(=CS1)C1=CC=C(C=C1)C#N)[C@](O)(CN1C=NC=N1)C1=C(F)C=CC(F)=C1

$$$$

  CDK     06141809482D

 26 29  0  0  0  0  0  0  0  0999 V2000
   -3.1786   12.4968    0.0000 C   0  0  0  0  0  0  0  0  0  0  0  0
   -3.3928   11.0122    0.0000 C   0  0  0  0  0  0  0  0  0  0  0  0
   -2.2141   10.0844    0.0000 S   0  0  0  0  0  0  0  0  0  0  0  0
   -0.7892    9.6157    0.0000 O   0  0  0  0  0  0  0  0  0  0  0  0
   -1.5051   11.4062    0.0000 O   0  0  0  0  0  0  0  0  0  0  0  0
   -2.4283    8.5998    0.0000 N   0  0  0  0  0  0  0  0  0  0  0  0
   -1.5300    7.3985    0.0000 C   0  0  0  0  0  0  0  0  0  0  0  0
   -2.7312    6.5002    0.0000 C   0  0  0  0  0  0  0  0  0  0  0  0
   -3.9324    5.6018    0.0000 C   0  0  0  0  0  0  0  0  0  0  0  0
   -5.3111    6.1930    0.0000 C   0  0  0  0  0  0  0  0  0  0  0  0
   -6.6897    6.7841    0.0000 N   0  0  0  0  0  0  0  0  0  0  0  0
   -3.6295    7.7014    0.0000 C   0  0  0  0  0  0  0  0  0  0  0  0
   -1.8329    5.2989    0.0000 N   0  0  0  0  0  0  0  0  0  0  0  0
   -2.2689    3.8616    0.0000 C   0  0  0  0  0  0  0  0  0  0  0  0
   -1.0500    2.9999    0.0000 C   0  0  0  0  0  0  0  0  0  0  0  0
    0.1512    3.8982    0.0000 C   0  0  0  0  0  0  0  0  0  0  0  0
   -0.3308    5.3109    0.0000 N   0  0  0  0  0  0  0  0  0  0  0  0
   -1.0300    1.5000    0.0000 C   0  0  0  0  0  0  0  0  0  0  0  0
    0.2900    0.7800    0.0000 C   0  0  0  0  0  0  0  0  0  0  0  0
    1.7000    1.1800    0.0000 C   0  0  0  0  0  0  0  0  0  0  0  0
    2.6100    0.0100    0.0000 C   0  0  0  0  0  0  0  0  0  0  0  0
    1.7000   -1.1900    0.0000 N   0  0  0  0  0  0  0  0  0  0  0  0
    0.2900   -0.7800    0.0000 C   0  0  0  0  0  0  0  0  0  0  0  0
   -1.0300   -1.5000    0.0000 N   0  0  0  0  0  0  0  0  0  0  0  0
   -2.2700   -0.7800    0.0000 C   0  0  0  0  0  0  0  0  0  0  0  0
   -2.2700    0.7800    0.0000 N   0  0  0  0  0  0  0  0  0  0  0  0
  1  2  1  0  0  0  0 
  2  3  1  0  0  0  0 
  3  4  2  0  0  0  0 
  3  5  2  0  0  0  0 
  3  6  1  0  0  0  0 
  6  7  1  0  0  0  0 
  7  8  1  0  0  0  0 
  8  9  1  0  0  0  0 
  9 10  1  0  0  0  0 
 10 11  3  0  0  0  0 
  8 12  1  0  0  0  0 
  6 12  1  0  0  0  0 
  8 13  1  0  0  0  0 
 13 14  1  0  0  0  0 
 14 15  2  0  0  0  0 
 15 16  1  0  0  0  0 
 16 17  2  0  0  0  0 
 13 17  1  0  0  0  0 
 15 18  1  0  0  0  0 
 18 19  2  0  0  0  0 
 19 20  1  0  0  0  0 
 20 21  2  0  0  0  0 
 21 22  1  0  0  0  0 
 22 23  1  0  0  0  0 
 19 23  1  0  0  0  0 
 23 24  2  0  0  0  0 
 24 25  1  0  0  0  0 
 25 26  2  0  0  0  0 
 18 26  1  0  0  0  0 
M  END
> <SMILES>
CCS(=O)(=O)N1CC(CC#N)(C1)N1C=C(C=N1)C1=C2C=CNC2=NC=N1

$$$$

  CDK     06141809482D

 30 33  0  0  1  0  0  0  0  0999 V2000
   14.1277   -3.6080    0.0000 C   0  0  0  0  0  0  0  0  0  0  0  0
   12.6281   -3.6436    0.0000 C   0  0  0  0  0  0  0  0  0  0  0  0
   11.8475   -2.3628    0.0000 O   0  0  0  0  0  0  0  0  0  0  0  0
   10.3479   -2.3985    0.0000 C   0  0  0  0  0  0  0  0  0  0  0  0
    9.5333   -1.0864    0.0000 C   0  0  0  0  0  0  0  0  0  0  0  0
    8.0588   -1.1239    0.0000 C   0  0  0  0  0  0  0  0  0  0  0  0
    7.3291   -2.4344    0.0000 C   0  0  0  0  0  0  0  0  0  0  0  0
    5.8292   -2.4503    0.0000 C   0  0  0  0  0  0  0  0  0  0  0  0
    5.0654   -1.1593    0.0000 C   0  0  0  0  0  0  0  0  0  0  0  0
    3.5647   -1.1750    0.0000 C   0  0  0  0  0  0  0  0  0  0  0  0
    2.7999    0.1164    0.0000 C   0  0  0  0  0  0  0  0  0  0  0  0
    3.5359    1.4234    0.0000 C   0  0  0  0  0  0  0  0  0  0  0  0
    5.0366    1.4391    0.0000 C   0  0  0  0  0  0  0  0  0  0  0  0
    5.8014    0.1477    0.0000 C   0  0  0  0  0  0  0  0  0  0  0  0
    7.3013    0.1641    0.0000 Cl  0  0  0  0  0  0  0  0  0  0  0  0
    1.3000    0.1000    0.0000 C   0  0  2  0  0  0  0  0  0  0  0  0
    1.2600    1.9300    0.0000 O   0  0  0  0  0  0  0  0  0  0  0  0
   -1.2900    1.9500    0.0000 C   0  0  0  0  0  0  0  0  0  0  0  0
   -1.2900    0.1000    0.0000 C   0  0  2  0  0  0  0  0  0  0  0  0
   -2.7900    0.1000    0.0000 C   0  0  0  0  0  0  0  0  0  0  0  0
   -3.5400    1.3990    0.0000 O   0  0  0  0  0  0  0  0  0  0  0  0
    0.0100    0.8500    0.0000 O   0  0  0  0  0  0  0  0  0  0  0  0
   -1.2900   -1.4000    0.0000 C   0  0  1  0  0  0  0  0  0  0  0  0
   -2.5889   -2.1502    0.0000 O   0  0  0  0  0  0  0  0  0  0  0  0
    0.0100   -2.1500    0.0000 C   0  0  2  0  0  0  0  0  0  0  0  0
    0.0125   -3.6500    0.0000 O   0  0  0  0  0  0  0  0  0  0  0  0
    1.3000   -1.4000    0.0000 C   0  0  1  0  0  0  0  0  0  0  0  0
    2.6002   -2.1480    0.0000 O   0  0  0  0  0  0  0  0  0  0  0  0
    8.0738   -3.7075    0.0000 C   0  0  0  0  0  0  0  0  0  0  0  0
    9.6181   -3.7090    0.0000 C   0  0  0  0  0  0  0  0  0  0  0  0
  1  2  1  0  0  0  0 
  2  3  1  0  0  0  0 
  3  4  1  0  0  0  0 
  4  5  2  0  0  0  0 
  5  6  1  0  0  0  0 
  6  7  2  0  0  0  0 
  7  8  1  0  0  0  0 
  8  9  1  0  0  0  0 
  9 10  2  0  0  0  0 
 10 11  1  0  0  0  0 
 11 12  2  0  0  0  0 
 12 13  1  0  0  0  0 
 13 14  2  0  0  0  0 
  9 14  1  0  0  0  0 
 14 15  1  0  0  0  0 
 16 11  1  1  0  0  0 
 16 17  1  0  0  0  0 
 17 18  1  0  0  0  0 
 18 19  1  0  0  0  0 
 19 20  1  1  0  0  0 
 20 21  1  0  0  0  0 
 19 22  1  0  0  0  0 
 16 22  1  0  0  0  0 
 19 23  1  0  0  0  0 
 23 24  1  6  0  0  0 
 23 25  1  0  0  0  0 
 25 26  1  1  0  0  0 
 25 27  1  0  0  0  0 
 16 27  1  0  0  0  0 
 27 28  1  6  0  0  0 
  7 29  1  0  0  0  0 
 29 30  2  0  0  0  0 
  4 30  1  0  0  0  0 
M  END
> <SMILES>
CCOC1=CC=C(CC2=CC(=CC=C2Cl)[C@]23OC[C@](CO)(O2)[C@@H](O)[C@H](O)[C@H]3O)C=C1

$$$$

  CDK     06141809482D

 33 36  0  0  0  0  0  0  0  0999 V2000
   -6.0613    0.0832    0.0000 C   0  0  0  0  0  0  0  0  0  0  0  0
   -4.6909    0.6933    0.0000 N   0  0  0  0  0  0  0  0  0  0  0  0
   -4.5342    2.1851    0.0000 C   0  0  0  0  0  0  0  0  0  0  0  0
   -5.7477    3.0668    0.0000 O   0  0  0  0  0  0  0  0  0  0  0  0
   -3.1638    2.7952    0.0000 C   0  0  0  0  0  0  0  0  0  0  0  0
   -3.0067    4.2878    0.0000 C   0  0  0  0  0  0  0  0  0  0  0  0
   -1.6359    4.8989    0.0000 C   0  0  0  0  0  0  0  0  0  0  0  0
   -0.4223    4.0174    0.0000 C   0  0  0  0  0  0  0  0  0  0  0  0
   -0.5794    2.5248    0.0000 C   0  0  0  0  0  0  0  0  0  0  0  0
   -1.9502    1.9137    0.0000 C   0  0  0  0  0  0  0  0  0  0  0  0
   -2.1065    0.4219    0.0000 F   0  0  0  0  0  0  0  0  0  0  0  0
    0.9481    4.6275    0.0000 N   0  0  0  0  0  0  0  0  0  0  0  0
    2.2471    3.8775    0.0000 C   0  0  0  0  0  0  0  0  0  0  0  0
    2.4039    2.3858    0.0000 S   0  0  0  0  0  0  0  0  0  0  0  0
    3.3618    4.8812    0.0000 N   0  0  0  0  0  0  0  0  0  0  0  0
    2.7517    6.2515    0.0000 C   0  0  0  0  0  0  0  0  0  0  0  0
    3.5017    7.5506    0.0000 O   0  0  0  0  0  0  0  0  0  0  0  0
    1.2599    6.0948    0.0000 C   0  0  0  0  0  0  0  0  0  0  0  0
   -0.2380    6.1733    0.0000 C   0  0  0  0  0  0  0  0  0  0  0  0
   -0.1595    7.6712    0.0000 C   0  0  0  0  0  0  0  0  0  0  0  0
    1.3384    7.5927    0.0000 C   0  0  0  0  0  0  0  0  0  0  0  0
    4.8290    4.5694    0.0000 C   0  0  0  0  0  0  0  0  0  0  0  0
    5.2930    3.1421    0.0000 C   0  0  0  0  0  0  0  0  0  0  0  0
    6.7609    2.8293    0.0000 C   0  0  0  0  0  0  0  0  0  0  0  0
    7.7648    3.9439    0.0000 C   0  0  0  0  0  0  0  0  0  0  0  0
    7.3008    5.3712    0.0000 N   0  0  0  0  0  0  0  0  0  0  0  0
    5.8329    5.6839    0.0000 C   0  0  0  0  0  0  0  0  0  0  0  0
    9.2320    3.6320    0.0000 C   0  0  0  0  0  0  0  0  0  0  0  0
   10.6992    3.3201    0.0000 N   0  0  0  0  0  0  0  0  0  0  0  0
    7.2240    1.4026    0.0000 C   0  0  0  0  0  0  0  0  0  0  0  0
    8.6911    1.0902    0.0000 F   0  0  0  0  0  0  0  0  0  0  0  0
    5.7385    1.1943    0.0000 F   0  0  0  0  0  0  0  0  0  0  0  0
    7.1712   -0.0965    0.0000 F   0  0  0  0  0  0  0  0  0  0  0  0
  1  2  1  0  0  0  0 
  2  3  1  0  0  0  0 
  3  4  2  0  0  0  0 
  3  5  1  0  0  0  0 
  5  6  2  0  0  0  0 
  6  7  1  0  0  0  0 
  7  8  2  0  0  0  0 
  8  9  1  0  0  0  0 
  9 10  2  0  0  0  0 
  5 10  1  0  0  0  0 
 10 11  1  0  0  0  0 
  8 12  1  0  0  0  0 
 12 13  1  0  0  0  0 
 13 14  2  0  0  0  0 
 13 15  1  0  0  0  0 
 15 16  1  0  0  0  0 
 16 17  2  0  0  0  0 
 16 18  1  0  0  0  0 
 12 18  1  0  0  0  0 
 18 19  1  0  0  0  0 
 19 20  1  0  0  0  0 
 20 21  1  0  0  0  0 
 18 21  1  0  0  0  0 
 15 22  1  0  0  0  0 
 22 23  2  0  0  0  0 
 23 24  1  0  0  0  0 
 24 25  2  0  0  0  0 
 25 26  1  0  0  0  0 
 26 27  2  0  0  0  0 
 22 27  1  0  0  0  0 
 25 28  1  0  0  0  0 
 28 29  3  0  0  0  0 
 24 30  1  0  0  0  0 
 30 31  1  0  0  0  0 
 30 32  1  0  0  0  0 
 30 33  1  0  0  0  0 
M  END
> <SMILES>
CNC(=O)C1=CC=C(C=C1F)N1C(=S)N(C(=O)C11CCC1)C1=CC(=C(N=C1)C#N)C(F)(F)F

$$$$

  CDK     06141809482D

 32 34  0  0  0  0  0  0  0  0999 V2000
   -3.2229  -11.5869    0.0000 C   0  0  0  0  0  0  0  0  0  0  0  0
   -4.5222  -10.8373    0.0000 O   0  0  0  0  0  0  0  0  0  0  0  0
   -4.5227   -9.3373    0.0000 C   0  0  0  0  0  0  0  0  0  0  0  0
   -3.2229   -8.5869    0.0000 C   0  0  0  0  0  0  0  0  0  0  0  0
   -3.2234   -7.0869    0.0000 C   0  0  0  0  0  0  0  0  0  0  0  0
   -4.5237   -6.3373    0.0000 C   0  0  0  0  0  0  0  0  0  0  0  0
   -4.5241   -4.8373    0.0000 N   0  0  0  0  0  0  0  0  0  0  0  0
   -3.2253   -4.0869    0.0000 C   0  0  0  0  0  0  0  0  0  0  0  0
   -3.2258   -2.5869    0.0000 O   0  0  0  0  0  0  0  0  0  0  0  0
   -1.9261   -4.8365    0.0000 C   0  0  0  0  0  0  0  0  0  0  0  0
   -1.9435   -6.2855    0.0000 C   0  0  0  0  0  0  0  0  0  0  0  0
   -0.6916   -7.0751    0.0000 C   0  0  0  0  0  0  0  0  0  0  0  0
    0.5964   -6.3096    0.0000 C   0  0  0  0  0  0  0  0  0  0  0  0
    0.6138   -4.8605    0.0000 C   0  0  0  0  0  0  0  0  0  0  0  0
   -0.6380   -4.0709    0.0000 C   0  0  0  0  0  0  0  0  0  0  0  0
    1.8956   -7.0592    0.0000 C   0  0  0  0  0  0  0  0  0  0  0  0
    1.8961   -8.5592    0.0000 N   0  0  0  0  0  0  0  0  0  0  0  0
    3.1944   -6.3088    0.0000 N   0  0  0  0  0  0  0  0  0  0  0  0
    4.4937   -7.0584    0.0000 C   0  0  0  0  0  0  0  0  0  0  0  0
    3.1940   -4.8088    0.0000 C   0  0  0  0  0  0  0  0  0  0  0  0
   -5.8234   -7.0877    0.0000 C   0  0  0  0  0  0  0  0  0  0  0  0
   -5.8229   -8.5877    0.0000 C   0  0  0  0  0  0  0  0  0  0  0  0
   -7.1226   -6.3379    0.0000 C   0  0  0  0  0  0  0  0  0  0  0  0
   -8.4215   -7.0881    0.0000 O   0  0  0  0  0  0  0  0  0  0  0  0
   -7.1228   -4.8379    0.0000 N   0  0  0  0  0  0  0  0  0  0  0  0
   -8.4220   -4.0881    0.0000 C   0  0  0  0  0  0  0  0  0  0  0  0
   -9.7210   -4.8381    0.0000 C   0  0  0  0  0  0  0  0  0  0  0  0
  -11.0205   -4.0873    0.0000 C   0  0  0  0  0  0  0  0  0  0  0  0
  -11.0210   -2.5865    0.0000 C   0  0  0  0  0  0  0  0  0  0  0  0
  -12.3202   -1.8367    0.0000 Cl  0  0  0  0  0  0  0  0  0  0  0  0
   -9.7220   -1.8365    0.0000 C   0  0  0  0  0  0  0  0  0  0  0  0
   -8.4225   -2.5873    0.0000 N   0  0  0  0  0  0  0  0  0  0  0  0
  1  2  1  0  0  0  0 
  2  3  1  0  0  0  0 
  3  4  2  0  0  0  0 
  4  5  1  0  0  0  0 
  5  6  2  0  0  0  0 
  6  7  1  0  0  0  0 
  7  8  1  0  0  0  0 
  8  9  2  0  0  0  0 
  8 10  1  0  0  0  0 
 10 11  2  0  0  0  0 
 11 12  1  0  0  0  0 
 12 13  2  0  0  0  0 
 13 14  1  0  0  0  0 
 14 15  2  0  0  0  0 
 10 15  1  0  0  0  0 
 13 16  1  0  0  0  0 
 16 17  2  0  0  0  0 
 16 18  1  0  0  0  0 
 18 19  1  0  0  0  0 
 18 20  1  0  0  0  0 
  6 21  1  0  0  0  0 
 21 22  2  0  0  0  0 
  3 22  1  0  0  0  0 
 21 23  1  0  0  0  0 
 23 24  2  0  0  0  0 
 23 25  1  0  0  0  0 
 25 26  1  0  0  0  0 
 26 27  2  0  0  0  0 
 27 28  1  0  0  0  0 
 28 29  2  0  0  0  0 
 29 30  1  0  0  0  0 
 29 31  1  0  0  0  0 
 31 32  2  0  0  0  0 
 26 32  1  0  0  0  0 
M  END
> <SMILES>
COC1=CC=C(NC(=O)C2=CC=C(C=C2)C(=N)N(C)C)C(=C1)C(=O)NC1=CC=C(Cl)C=N1

$$$$

  CDK     06141809482D

 35 39  0  0  0  0  0  0  0  0999 V2000
   -3.2490   -4.3500    0.0000 C   0  0  0  0  0  0  0  0  0  0  0  0
   -1.9500   -3.6000    0.0000 O   0  0  0  0  0  0  0  0  0  0  0  0
   -1.9500   -2.1000    0.0000 C   0  0  0  0  0  0  0  0  0  0  0  0
   -3.2500   -1.3500    0.0000 C   0  0  0  0  0  0  0  0  0  0  0  0
   -4.5489   -2.1002    0.0000 O   0  0  0  0  0  0  0  0  0  0  0  0
   -5.8481   -1.3504    0.0000 C   0  0  0  0  0  0  0  0  0  0  0  0
   -7.1470   -2.1006    0.0000 C   0  0  0  0  0  0  0  0  0  0  0  0
   -8.4462   -1.3508    0.0000 C   0  0  0  0  0  0  0  0  0  0  0  0
   -9.7451   -2.1010    0.0000 N   0  0  0  0  0  0  0  0  0  0  0  0
   -9.7451   -3.6010    0.0000 C   0  0  0  0  0  0  0  0  0  0  0  0
  -11.0451   -4.3510    0.0000 C   0  0  0  0  0  0  0  0  0  0  0  0
  -12.3451   -3.6010    0.0000 O   0  0  0  0  0  0  0  0  0  0  0  0
  -12.3451   -2.1010    0.0000 C   0  0  0  0  0  0  0  0  0  0  0  0
  -11.0451   -1.3510    0.0000 C   0  0  0  0  0  0  0  0  0  0  0  0
   -3.2500    0.1500    0.0000 C   0  0  0  0  0  0  0  0  0  0  0  0
   -1.9500    0.9000    0.0000 C   0  0  0  0  0  0  0  0  0  0  0  0
   -0.6500    0.1500    0.0000 C   0  0  0  0  0  0  0  0  0  0  0  0
   -0.6500   -1.3500    0.0000 C   0  0  0  0  0  0  0  0  0  0  0  0
    0.6500   -2.1000    0.0000 N   0  0  0  0  0  0  0  0  0  0  0  0
    1.9500   -1.3500    0.0000 C   0  0  0  0  0  0  0  0  0  0  0  0
    3.2489   -2.1002    0.0000 N   0  0  0  0  0  0  0  0  0  0  0  0
    4.5481   -1.3504    0.0000 C   0  0  0  0  0  0  0  0  0  0  0  0
    4.5483    0.1496    0.0000 O   0  0  0  0  0  0  0  0  0  0  0  0
    5.8470   -2.1006    0.0000 C   0  0  0  0  0  0  0  0  0  0  0  0
    7.1463   -1.3510    0.0000 C   0  0  0  0  0  0  0  0  0  0  0  0
    8.4456   -2.1023    0.0000 N   0  0  0  0  0  0  0  0  0  0  0  0
    8.4456   -3.6031    0.0000 C   0  0  0  0  0  0  0  0  0  0  0  0
    9.7445   -4.3533    0.0000 N   0  0  0  0  0  0  0  0  0  0  0  0
    7.1463   -4.3527    0.0000 N   0  0  0  0  0  0  0  0  0  0  0  0
    5.8470   -3.6015    0.0000 C   0  0  0  0  0  0  0  0  0  0  0  0
    1.9500    0.1500    0.0000 N   0  0  0  0  0  0  0  0  0  0  0  0
    3.0600    1.1500    0.0000 C   0  0  0  0  0  0  0  0  0  0  0  0
    2.4500    2.5200    0.0000 C   0  0  0  0  0  0  0  0  0  0  0  0
    0.9600    2.3600    0.0000 N   0  0  0  0  0  0  0  0  0  0  0  0
    0.6500    0.9000    0.0000 C   0  0  0  0  0  0  0  0  0  0  0  0
  1  2  1  0  0  0  0 
  2  3  1  0  0  0  0 
  3  4  2  0  0  0  0 
  4  5  1  0  0  0  0 
  5  6  1  0  0  0  0 
  6  7  1  0  0  0  0 
  7  8  1  0  0  0  0 
  8  9  1  0  0  0  0 
  9 10  1  0  0  0  0 
 10 11  1  0  0  0  0 
 11 12  1  0  0  0  0 
 12 13  1  0  0  0  0 
 13 14  1  0  0  0  0 
  9 14  1  0  0  0  0 
  4 15  1  0  0  0  0 
 15 16  2  0  0  0  0 
 16 17  1  0  0  0  0 
 17 18  2  0  0  0  0 
  3 18  1  0  0  0  0 
 18 19  1  0  0  0  0 
 19 20  2  0  0  0  0 
 20 21  1  0  0  0  0 
 21 22  1  0  0  0  0 
 22 23  2  0  0  0  0 
 22 24  1  0  0  0  0 
 24 25  2  0  0  0  0 
 25 26  1  0  0  0  0 
 26 27  2  0  0  0  0 
 27 28  1  0  0  0  0 
 27 29  1  0  0  0  0 
 29 30  2  0  0  0  0 
 24 30  1  0  0  0  0 
 20 31  1  0  0  0  0 
 31 32  1  0  0  0  0 
 32 33  1  0  0  0  0 
 33 34  1  0  0  0  0 
 34 35  2  0  0  0  0 
 17 35  1  0  0  0  0 
 31 35  1  0  0  0  0 
M  END
> <SMILES>
COC1=C(OCCCN2CCOCC2)C=CC2=C1N=C(NC(=O)C1=CN=C(N)N=C1)N1CCN=C21

$$$$

  CDK     06141809482D

  9  9  0  0  1  0  0  0  0  0999 V2000
    1.3694   -1.0860    0.0000 N   0  0  0  0  0  0  0  0  0  0  0  0
    0.6194    0.2131    0.0000 C   0  0  1  0  0  0  0  0  0  0  0  0
   -0.6797   -0.5369    0.0000 C   0  0  0  0  0  0  0  0  0  0  0  0
   -1.4297    0.7621    0.0000 C   0  0  2  0  0  0  0  0  0  0  0  0
   -2.8786    1.1503    0.0000 F   0  0  0  0  0  0  0  0  0  0  0  0
   -0.1306    1.5121    0.0000 C   0  0  0  0  0  0  0  0  0  0  0  0
    1.9184    0.9631    0.0000 C   0  0  0  0  0  0  0  0  0  0  0  0
    3.2174    0.2131    0.0000 O   0  0  0  0  0  0  0  0  0  0  0  0
    1.9184    2.4631    0.0000 O   0  0  0  0  0  0  0  0  0  0  0  0
  2  1  1  1  0  0  0 
  2  3  1  0  0  0  0 
  3  4  1  0  0  0  0 
  4  5  1  6  0  0  0 
  4  6  1  0  0  0  0 
  2  6  1  0  0  0  0 
  2  7  1  6  0  0  0 
  7  8  1  0  0  0  0 
  7  9  2  0  0  0  0 
M  ISO  1   5  18
M  END
> <SMILES>
N[C@]1(C[C@H]([18F])C1)C(O)=O

$$$$

  CDK     06141809482D

 57 60  0  0  1  0  0  0  0  0999 V2000
   -4.4065    4.4663    0.0000 C   0  0  0  0  0  0  0  0  0  0  0  0
   -3.6543    3.1685    0.0000 O   0  0  0  0  0  0  0  0  0  0  0  0
   -2.1543    3.1710    0.0000 C   0  0  1  0  0  0  0  0  0  0  0  0
   -1.4022    1.8723    0.0000 C   0  0  0  0  0  0  0  0  0  0  0  0
    0.0978    1.8748    0.0000 C   0  0  2  0  0  0  0  0  0  0  0  0
    0.8502    0.5771    0.0000 O   0  0  0  0  0  0  0  0  0  0  0  0
    2.3502    0.5799    0.0000 C   0  0  1  0  0  0  0  0  0  0  0  0
    3.1006   -0.7189    0.0000 C   0  0  2  0  0  0  0  0  0  0  0  0
    4.6006   -0.7187    0.0000 C   0  0  0  0  0  0  0  0  0  0  0  0
    2.3502   -2.0187    0.0000 C   0  0  1  0  0  0  0  0  0  0  0  0
    0.8502   -2.0189    0.0000 O   0  0  0  0  0  0  0  0  0  0  0  0
    0.1004   -3.3181    0.0000 C   0  0  2  0  0  0  0  0  0  0  0  0
    0.8508   -4.6178    0.0000 O   0  0  0  0  0  0  0  0  0  0  0  0
    0.1012   -5.9181    0.0000 C   0  0  2  0  0  0  0  0  0  0  0  0
    0.8519   -7.2168    0.0000 C   0  0  0  0  0  0  0  0  0  0  0  0
   -1.3988   -5.9186    0.0000 C   0  0  0  0  0  0  0  0  0  0  0  0
   -2.1492   -4.6188    0.0000 C   0  0  1  0  0  0  0  0  0  0  0  0
   -1.3996   -3.3186    0.0000 C   0  0  1  0  0  0  0  0  0  0  0  0
   -2.1502   -2.0199    0.0000 O   0  0  0  0  0  0  0  0  0  0  0  0
   -1.4008   -0.7205    0.0000 C   0  0  0  0  0  0  0  0  0  0  0  0
    0.0992   -0.7198    0.0000 C   0  0  0  0  0  0  0  0  0  0  0  0
   -2.1515    0.5782    0.0000 O   0  0  0  0  0  0  0  0  0  0  0  0
   -3.6492   -4.6193    0.0000 N   0  0  0  0  0  0  0  0  0  0  0  0
   -4.3988   -5.9186    0.0000 C   0  0  0  0  0  0  0  0  0  0  0  0
   -4.3996   -3.3205    0.0000 C   0  0  0  0  0  0  0  0  0  0  0  0
    3.1006   -3.3175    0.0000 C   0  0  1  0  0  0  0  0  0  0  0  0
    2.3512   -4.6169    0.0000 C   0  0  0  0  0  0  0  0  0  0  0  0
    4.6015   -3.3165    0.0000 C   0  0  0  0  0  0  0  0  0  0  0  0
    5.3519   -4.6153    0.0000 C   0  0  2  0  0  0  0  0  0  0  0  0
    4.7578   -5.9927    0.0000 C   0  0  0  0  0  0  0  0  0  0  0  0
    6.2477   -5.8184    0.0000 O   0  0  0  0  0  0  0  0  0  0  0  0
    6.8527   -4.6143    0.0000 C   0  0  0  0  0  0  0  0  0  0  0  0
    7.6053   -5.9119    0.0000 O   0  0  0  0  0  0  0  0  0  0  0  0
    7.5945   -3.3196    0.0000 C   0  0  2  0  0  0  0  0  0  0  0  0
    6.0945   -3.3223    0.0000 C   0  0  0  0  0  0  0  0  0  0  0  0
    6.8440   -2.0208    0.0000 C   0  0  1  0  0  0  0  0  0  0  0  0
    8.3440   -2.0206    0.0000 O   0  0  0  0  0  0  0  0  0  0  0  0
    9.0943   -3.3195    0.0000 C   0  0  0  0  0  0  0  0  0  0  0  0
   10.5943   -3.3192    0.0000 C   0  0  0  0  0  0  0  0  0  0  0  0
    8.3445   -4.6186    0.0000 O   0  0  0  0  0  0  0  0  0  0  0  0
    7.5945   -0.7210    0.0000 C   0  0  1  0  0  0  0  0  0  0  0  0
    9.0945   -0.7208    0.0000 C   0  0  0  0  0  0  0  0  0  0  0  0
    6.8440    0.5778    0.0000 C   0  0  1  0  0  0  0  0  0  0  0  0
    7.5934    1.8772    0.0000 C   0  0  0  0  0  0  0  0  0  0  0  0
    5.3432    0.5768    0.0000 O   0  0  0  0  0  0  0  0  0  0  0  0
    4.5928    1.8756    0.0000 C   0  0  0  0  0  0  0  0  0  0  0  0
    5.3422    3.1750    0.0000 O   0  0  0  0  0  0  0  0  0  0  0  0
    3.0920    1.8746    0.0000 C   0  0  2  0  0  0  0  0  0  0  0  0
    2.3394    3.1722    0.0000 C   0  0  0  0  0  0  0  0  0  0  0  0
    0.8457    3.1760    0.0000 O   0  0  0  0  0  0  0  0  0  0  0  0
    0.0935    4.4748    0.0000 C   0  0  1  0  0  0  0  0  0  0  0  0
    0.8415    5.7750    0.0000 C   0  0  0  0  0  0  0  0  0  0  0  0
   -1.4065    4.4723    0.0000 C   0  0  2  0  0  0  0  0  0  0  0  0
   -2.1589    5.7699    0.0000 O   0  0  0  0  0  0  0  0  0  0  0  0
   -1.4113    7.0703    0.0000 C   0  0  0  0  0  0  0  0  0  0  0  0
   -2.1637    8.3680    0.0000 C   0  0  0  0  0  0  0  0  0  0  0  0
    0.0887    7.0731    0.0000 O   0  0  0  0  0  0  0  0  0  0  0  0
  1  2  1  0  0  0  0 
  3  2  1  6  0  0  0 
  3  4  1  0  0  0  0 
  4  5  1  0  0  0  0 
  5  6  1  1  0  0  0 
  7  6  1  6  0  0  0 
  7  8  1  0  0  0  0 
  8  9  1  6  0  0  0 
  8 10  1  0  0  0  0 
 10 11  1  6  0  0  0 
 12 11  1  6  0  0  0 
 12 13  1  0  0  0  0 
 13 14  1  0  0  0  0 
 14 15  1  6  0  0  0 
 14 16  1  0  0  0  0 
 16 17  1  0  0  0  0 
 17 18  1  0  0  0  0 
 12 18  1  0  0  0  0 
 18 19  1  1  0  0  0 
 19 20  1  0  0  0  0 
 20 21  1  0  0  0  0 
 20 22  2  0  0  0  0 
 17 23  1  6  0  0  0 
 23 24  1  0  0  0  0 
 23 25  1  0  0  0  0 
 10 26  1  0  0  0  0 
 26 27  1  6  0  0  0 
 26 28  1  0  0  0  0 
 28 29  1  0  0  0  0 
 29 30  1  6  0  0  0 
 30 31  1  0  0  0  0 
 29 31  1  1  0  0  0 
 29 32  1  0  0  0  0 
 32 33  2  0  0  0  0 
 32 34  1  0  0  0  0 
 34 35  1  1  0  0  0 
 34 36  1  0  0  0  0 
 36 37  1  1  0  0  0 
 37 38  1  0  0  0  0 
 38 39  1  0  0  0  0 
 38 40  2  0  0  0  0 
 36 41  1  0  0  0  0 
 41 42  1  6  0  0  0 
 41 43  1  0  0  0  0 
 43 44  1  6  0  0  0 
 43 45  1  0  0  0  0 
 45 46  1  0  0  0  0 
 46 47  2  0  0  0  0 
 46 48  1  0  0  0  0 
  7 48  1  0  0  0  0 
 48 49  1  1  0  0  0 
  5 50  1  0  0  0  0 
 50 51  1  0  0  0  0 
 51 52  1  6  0  0  0 
 51 53  1  0  0  0  0 
  3 53  1  0  0  0  0 
 53 54  1  1  0  0  0 
 54 55  1  0  0  0  0 
 55 56  1  0  0  0  0 
 55 57  2  0  0  0  0 
M  END
> <SMILES>
CO[C@H]1C[C@H](O[C@H]2[C@H](C)[C@@H](O[C@@H]3O[C@H](C)C[C@@H]([C@H]3OC(C)=O)N(C)C)[C@@H](C)C[C@@]3(CO3)C(=O)[C@H](C)[C@@H](OC(C)=O)[C@@H](C)[C@@H](C)OC(=O)[C@@H]2C)O[C@@H](C)[C@@H]1OC(C)=O

$$$$

  CDK     06141809482D

 33 37  0  0  0  0  0  0  0  0999 V2000
    6.3500   -1.2990    0.0000 C   0  0  0  0  0  0  0  0  0  0  0  0
    4.8500   -1.2990    0.0000 C   0  0  0  0  0  0  0  0  0  0  0  0
    4.1000   -0.0000    0.0000 O   0  0  0  0  0  0  0  0  0  0  0  0
    2.6000    0.0000    0.0000 C   0  0  0  0  0  0  0  0  0  0  0  0
    1.7200   -1.2100    0.0000 N   0  0  0  0  0  0  0  0  0  0  0  0
    0.2900   -0.7500    0.0000 C   0  0  0  0  0  0  0  0  0  0  0  0
   -1.0100   -1.5000    0.0000 C   0  0  0  0  0  0  0  0  0  0  0  0
   -2.3100   -0.7500    0.0000 C   0  0  0  0  0  0  0  0  0  0  0  0
   -2.3100    0.7500    0.0000 C   0  0  0  0  0  0  0  0  0  0  0  0
   -1.0100    1.5000    0.0000 C   0  0  0  0  0  0  0  0  0  0  0  0
   -1.0100    3.0000    0.0000 C   0  0  0  0  0  0  0  0  0  0  0  0
   -2.3090    3.7500    0.0000 O   0  0  0  0  0  0  0  0  0  0  0  0
    0.2890    3.7500    0.0000 O   0  0  0  0  0  0  0  0  0  0  0  0
    0.2900    0.7500    0.0000 C   0  0  0  0  0  0  0  0  0  0  0  0
    1.7200    1.2100    0.0000 N   0  0  0  0  0  0  0  0  0  0  0  0
    2.1853    2.6360    0.0000 C   0  0  0  0  0  0  0  0  0  0  0  0
    3.6529    2.9461    0.0000 C   0  0  0  0  0  0  0  0  0  0  0  0
    4.6079    1.8561    0.0000 C   0  0  0  0  0  0  0  0  0  0  0  0
    6.0669    2.1047    0.0000 C   0  0  0  0  0  0  0  0  0  0  0  0
    6.5141    3.5347    0.0000 C   0  0  0  0  0  0  0  0  0  0  0  0
    5.5591    4.6247    0.0000 C   0  0  0  0  0  0  0  0  0  0  0  0
    4.1000    4.3761    0.0000 C   0  0  0  0  0  0  0  0  0  0  0  0
    7.9817    3.8448    0.0000 C   0  0  0  0  0  0  0  0  0  0  0  0
    8.9803    2.7360    0.0000 C   0  0  0  0  0  0  0  0  0  0  0  0
   10.4484    3.0436    0.0000 C   0  0  0  0  0  0  0  0  0  0  0  0
   10.9179    4.4600    0.0000 C   0  0  0  0  0  0  0  0  0  0  0  0
    9.9172    5.5786    0.0000 C   0  0  0  0  0  0  0  0  0  0  0  0
    8.4491    5.2710    0.0000 C   0  0  0  0  0  0  0  0  0  0  0  0
    7.4485    6.3884    0.0000 C   0  0  0  0  0  0  0  0  0  0  0  0
    5.9548    6.2305    0.0000 N   0  0  0  0  0  0  0  0  0  0  0  0
    5.3591    7.6094    0.0000 N   0  0  0  0  0  0  0  0  0  0  0  0
    6.4727    8.6033    0.0000 N   0  0  0  0  0  0  0  0  0  0  0  0
    7.7678    7.8465    0.0000 N   0  0  0  0  0  0  0  0  0  0  0  0
  1  2  1  0  0  0  0 
  2  3  1  0  0  0  0 
  3  4  1  0  0  0  0 
  4  5  2  0  0  0  0 
  5  6  1  0  0  0  0 
  6  7  2  0  0  0  0 
  7  8  1  0  0  0  0 
  8  9  2  0  0  0  0 
  9 10  1  0  0  0  0 
 10 11  1  0  0  0  0 
 11 12  1  0  0  0  0 
 11 13  2  0  0  0  0 
 10 14  2  0  0  0  0 
  6 14  1  0  0  0  0 
 14 15  1  0  0  0  0 
  4 15  1  0  0  0  0 
 15 16  1  0  0  0  0 
 16 17  1  0  0  0  0 
 17 18  2  0  0  0  0 
 18 19  1  0  0  0  0 
 19 20  2  0  0  0  0 
 20 21  1  0  0  0  0 
 21 22  2  0  0  0  0 
 17 22  1  0  0  0  0 
 20 23  1  0  0  0  0 
 23 24  2  0  0  0  0 
 24 25  1  0  0  0  0 
 25 26  2  0  0  0  0 
 26 27  1  0  0  0  0 
 27 28  2  0  0  0  0 
 23 28  1  0  0  0  0 
 28 29  1  0  0  0  0 
 29 30  2  0  0  0  0 
 30 31  1  0  0  0  0 
 31 32  2  0  0  0  0 
 32 33  1  0  0  0  0 
 29 33  1  0  0  0  0 
M  END
> <SMILES>
CCOC1=NC2=CC=CC(C(O)=O)=C2N1CC1=CC=C(C=C1)C1=CC=CC=C1C1=NN=NN1

$$$$

  CDK     06141809482D

 30 34  0  0  1  0  0  0  0  0999 V2000
    2.4272    3.1517    0.0000 C   0  0  0  0  0  0  0  0  0  0  0  0
    2.2700    1.6600    0.0000 C   0  0  2  0  0  0  0  0  0  0  0  0
    0.9700    2.4100    0.0000 C   0  0  0  0  0  0  0  0  0  0  0  0
   -0.3300    1.6600    0.0000 C   0  0  0  0  0  0  0  0  0  0  0  0
   -0.3300    0.1600    0.0000 C   0  0  1  0  0  0  0  0  0  0  0  0
    0.9700   -0.5900    0.0000 C   0  0  1  0  0  0  0  0  0  0  0  0
    0.9700   -2.0900    0.0000 C   0  0  0  0  0  0  0  0  0  0  0  0
   -0.3300   -2.8400    0.0000 C   0  0  0  0  0  0  0  0  0  0  0  0
   -1.6300   -2.0900    0.0000 C   0  0  0  0  0  0  0  0  0  0  0  0
   -2.9300   -2.8400    0.0000 C   0  0  0  0  0  0  0  0  0  0  0  0
   -4.2300   -2.0900    0.0000 C   0  0  0  0  0  0  0  0  0  0  0  0
   -5.5289   -2.8402    0.0000 O   0  0  0  0  0  0  0  0  0  0  0  0
   -4.2300   -0.5900    0.0000 C   0  0  0  0  0  0  0  0  0  0  0  0
   -2.9300    0.1600    0.0000 C   0  0  0  0  0  0  0  0  0  0  0  0
   -1.6300   -0.5900    0.0000 C   0  0  2  0  0  0  0  0  0  0  0  0
   -1.6300    0.9100    0.0000 C   0  0  0  0  0  0  0  0  0  0  0  0
    2.2700    0.1600    0.0000 C   0  0  2  0  0  0  0  0  0  0  0  0
    3.6900   -0.3000    0.0000 C   0  0  0  0  0  0  0  0  0  0  0  0
    4.5700    0.9100    0.0000 C   0  0  0  0  0  0  0  0  0  0  0  0
    3.6900    2.1200    0.0000 C   0  0  2  0  0  0  0  0  0  0  0  0
    4.1538    3.5465    0.0000 O   0  0  0  0  0  0  0  0  0  0  0  0
    5.6211    3.8581    0.0000 C   0  0  0  0  0  0  0  0  0  0  0  0
    6.6246    2.7431    0.0000 O   0  0  0  0  0  0  0  0  0  0  0  0
    6.0849    5.2846    0.0000 C   0  0  0  0  0  0  0  0  0  0  0  0
    7.5522    5.5961    0.0000 C   0  0  0  0  0  0  0  0  0  0  0  0
    8.0160    7.0226    0.0000 C   0  0  0  0  0  0  0  0  0  0  0  0
    9.4408    7.4865    0.0000 C   0  0  0  0  0  0  0  0  0  0  0  0
    9.4423    9.0025    0.0000 C   0  0  0  0  0  0  0  0  0  0  0  0
    8.0113    9.4386    0.0000 C   0  0  0  0  0  0  0  0  0  0  0  0
    7.1416    8.2286    0.0000 C   0  0  0  0  0  0  0  0  0  0  0  0
  2  1  1  1  0  0  0 
  2  3  1  0  0  0  0 
  3  4  1  0  0  0  0 
  5  4  1  1  0  0  0 
  5  6  1  0  0  0  0 
  6  7  1  6  0  0  0 
  7  8  1  0  0  0  0 
  8  9  1  0  0  0  0 
  9 10  2  0  0  0  0 
 10 11  1  0  0  0  0 
 11 12  2  0  0  0  0 
 11 13  1  0  0  0  0 
 13 14  1  0  0  0  0 
 14 15  1  0  0  0  0 
  5 15  1  0  0  0  0 
  9 15  1  0  0  0  0 
 15 16  1  1  0  0  0 
  6 17  1  0  0  0  0 
  2 17  1  0  0  0  0 
 17 18  1  1  0  0  0 
 18 19  1  0  0  0  0 
 19 20  1  0  0  0  0 
  2 20  1  0  0  0  0 
 20 21  1  1  0  0  0 
 21 22  1  0  0  0  0 
 22 23  2  0  0  0  0 
 22 24  1  0  0  0  0 
 24 25  1  0  0  0  0 
 25 26  1  0  0  0  0 
 26 27  1  0  0  0  0 
 27 28  1  0  0  0  0 
 28 29  1  0  0  0  0 
 29 30  1  0  0  0  0 
 26 30  1  0  0  0  0 
M  END
> <SMILES>
C[C@]12CC[C@H]3[C@@H](CCC4=CC(=O)CC[C@]34C)[C@@H]1CC[C@@H]2OC(=O)CCC1CCCC1

$$$$

  CDK     06141809482D

 32 35  0  0  1  0  0  0  0  0999 V2000
    1.0573    1.0428    0.0000 H   0  0  0  0  0  0  0  0  0  0  0  0
    2.2700    0.1600    0.0000 C   0  0  2  0  0  0  0  0  0  0  0  0
    3.6900   -0.3000    0.0000 C   0  0  0  0  0  0  0  0  0  0  0  0
    4.5700    0.9100    0.0000 C   0  0  0  0  0  0  0  0  0  0  0  0
    3.6900    2.1200    0.0000 C   0  0  2  0  0  0  0  0  0  0  0  0
    4.1538    3.5465    0.0000 O   0  0  0  0  0  0  0  0  0  0  0  0
    5.6211    3.8581    0.0000 C   0  0  0  0  0  0  0  0  0  0  0  0
    6.6246    2.7431    0.0000 O   0  0  0  0  0  0  0  0  0  0  0  0
    6.0849    5.2846    0.0000 C   0  0  0  0  0  0  0  0  0  0  0  0
    7.5522    5.5961    0.0000 C   0  0  0  0  0  0  0  0  0  0  0  0
    8.0160    7.0226    0.0000 C   0  0  0  0  0  0  0  0  0  0  0  0
    9.4833    7.3342    0.0000 C   0  0  0  0  0  0  0  0  0  0  0  0
    9.9471    8.7607    0.0000 C   0  0  0  0  0  0  0  0  0  0  0  0
   11.4144    9.0722    0.0000 C   0  0  0  0  0  0  0  0  0  0  0  0
    2.2700    1.6600    0.0000 C   0  0  2  0  0  0  0  0  0  0  0  0
    2.4272    3.1517    0.0000 C   0  0  0  0  0  0  0  0  0  0  0  0
    0.9700    2.4100    0.0000 C   0  0  0  0  0  0  0  0  0  0  0  0
   -0.3300    1.6600    0.0000 C   0  0  0  0  0  0  0  0  0  0  0  0
   -0.3300    0.1600    0.0000 C   0  0  1  0  0  0  0  0  0  0  0  0
   -0.3307   -1.3400    0.0000 H   0  0  0  0  0  0  0  0  0  0  0  0
    0.9700   -0.5900    0.0000 C   0  0  1  0  0  0  0  0  0  0  0  0
    2.2689   -1.3402    0.0000 H   0  0  0  0  0  0  0  0  0  0  0  0
    0.9700   -2.0900    0.0000 C   0  0  0  0  0  0  0  0  0  0  0  0
   -0.3300   -2.8400    0.0000 C   0  0  0  0  0  0  0  0  0  0  0  0
   -1.6300   -2.0900    0.0000 C   0  0  0  0  0  0  0  0  0  0  0  0
   -2.9300   -2.8400    0.0000 C   0  0  0  0  0  0  0  0  0  0  0  0
   -4.2300   -2.0900    0.0000 C   0  0  0  0  0  0  0  0  0  0  0  0
   -5.5289   -2.8402    0.0000 O   0  0  0  0  0  0  0  0  0  0  0  0
   -4.2300   -0.5900    0.0000 C   0  0  0  0  0  0  0  0  0  0  0  0
   -2.9300    0.1600    0.0000 C   0  0  0  0  0  0  0  0  0  0  0  0
   -1.6300   -0.5900    0.0000 C   0  0  2  0  0  0  0  0  0  0  0  0
   -1.6300    0.9100    0.0000 C   0  0  0  0  0  0  0  0  0  0  0  0
  2  1  1  6  0  0  0 
  2  3  1  0  0  0  0 
  3  4  1  0  0  0  0 
  4  5  1  0  0  0  0 
  5  6  1  1  0  0  0 
  6  7  1  0  0  0  0 
  7  8  2  0  0  0  0 
  7  9  1  0  0  0  0 
  9 10  1  0  0  0  0 
 10 11  1  0  0  0  0 
 11 12  1  0  0  0  0 
 12 13  1  0  0  0  0 
 13 14  1  0  0  0  0 
  5 15  1  0  0  0  0 
  2 15  1  0  0  0  0 
 15 16  1  1  0  0  0 
 15 17  1  0  0  0  0 
 17 18  1  0  0  0  0 
 18 19  1  0  0  0  0 
 19 20  1  6  0  0  0 
 19 21  1  0  0  0  0 
  2 21  1  0  0  0  0 
 21 22  1  1  0  0  0 
 21 23  1  0  0  0  0 
 23 24  1  0  0  0  0 
 24 25  1  0  0  0  0 
 25 26  2  0  0  0  0 
 26 27  1  0  0  0  0 
 27 28  2  0  0  0  0 
 27 29  1  0  0  0  0 
 29 30  1  0  0  0  0 
 30 31  1  0  0  0  0 
 19 31  1  0  0  0  0 
 25 31  1  0  0  0  0 
 31 32  1  1  0  0  0 
M  END
> <SMILES>
[H][C@@]12CC[C@H](OC(=O)CCCCCC)[C@@]1(C)CC[C@@]1([H])[C@@]2([H])CCC2=CC(=O)CC[C@]12C

$$$$

  CDK     06141809482D

 33 36  0  0  1  0  0  0  0  0999 V2000
   15.2766   12.5484    0.0000 C   0  0  0  0  0  0  0  0  0  0  0  0
   13.8093   12.2368    0.0000 C   0  0  0  0  0  0  0  0  0  0  0  0
   13.3455   10.8103    0.0000 C   0  0  0  0  0  0  0  0  0  0  0  0
   11.8782   10.4987    0.0000 C   0  0  0  0  0  0  0  0  0  0  0  0
   11.4144    9.0722    0.0000 C   0  0  0  0  0  0  0  0  0  0  0  0
    9.9471    8.7607    0.0000 C   0  0  0  0  0  0  0  0  0  0  0  0
    9.4833    7.3342    0.0000 C   0  0  0  0  0  0  0  0  0  0  0  0
    8.0160    7.0226    0.0000 C   0  0  0  0  0  0  0  0  0  0  0  0
    7.5522    5.5961    0.0000 C   0  0  0  0  0  0  0  0  0  0  0  0
    6.0849    5.2846    0.0000 C   0  0  0  0  0  0  0  0  0  0  0  0
    5.6211    3.8581    0.0000 C   0  0  0  0  0  0  0  0  0  0  0  0
    6.6246    2.7431    0.0000 O   0  0  0  0  0  0  0  0  0  0  0  0
    4.1538    3.5465    0.0000 O   0  0  0  0  0  0  0  0  0  0  0  0
    3.6900    2.1200    0.0000 C   0  0  1  0  0  0  0  0  0  0  0  0
    4.5700    0.9100    0.0000 C   0  0  0  0  0  0  0  0  0  0  0  0
    3.6900   -0.3000    0.0000 C   0  0  0  0  0  0  0  0  0  0  0  0
    2.2700    0.1600    0.0000 C   0  0  1  0  0  0  0  0  0  0  0  0
    0.9700   -0.5900    0.0000 C   0  0  2  0  0  0  0  0  0  0  0  0
    0.9700   -2.0900    0.0000 C   0  0  0  0  0  0  0  0  0  0  0  0
   -0.3300   -2.8400    0.0000 C   0  0  0  0  0  0  0  0  0  0  0  0
   -1.6300   -2.0900    0.0000 C   0  0  0  0  0  0  0  0  0  0  0  0
   -2.9300   -2.8400    0.0000 C   0  0  0  0  0  0  0  0  0  0  0  0
   -4.2300   -2.0900    0.0000 C   0  0  0  0  0  0  0  0  0  0  0  0
   -5.5289   -2.8402    0.0000 O   0  0  0  0  0  0  0  0  0  0  0  0
   -4.2300   -0.5900    0.0000 C   0  0  0  0  0  0  0  0  0  0  0  0
   -2.9300    0.1600    0.0000 C   0  0  0  0  0  0  0  0  0  0  0  0
   -1.6300   -0.5900    0.0000 C   0  0  1  0  0  0  0  0  0  0  0  0
   -1.6300    0.9100    0.0000 C   0  0  0  0  0  0  0  0  0  0  0  0
   -0.3300    0.1600    0.0000 C   0  0  1  0  0  0  0  0  0  0  0  0
   -0.3300    1.6600    0.0000 C   0  0  0  0  0  0  0  0  0  0  0  0
    0.9700    2.4100    0.0000 C   0  0  0  0  0  0  0  0  0  0  0  0
    2.2700    1.6600    0.0000 C   0  0  2  0  0  0  0  0  0  0  0  0
    2.4272    3.1517    0.0000 C   0  0  0  0  0  0  0  0  0  0  0  0
  1  2  1  0  0  0  0 
  2  3  1  0  0  0  0 
  3  4  1  0  0  0  0 
  4  5  1  0  0  0  0 
  5  6  1  0  0  0  0 
  6  7  1  0  0  0  0 
  7  8  1  0  0  0  0 
  8  9  1  0  0  0  0 
  9 10  1  0  0  0  0 
 10 11  1  0  0  0  0 
 11 12  2  0  0  0  0 
 11 13  1  0  0  0  0 
 14 13  1  1  0  0  0 
 14 15  1  0  0  0  0 
 15 16  1  0  0  0  0 
 17 16  1  1  0  0  0 
 17 18  1  0  0  0  0 
 18 19  1  6  0  0  0 
 19 20  1  0  0  0  0 
 20 21  1  0  0  0  0 
 21 22  2  0  0  0  0 
 22 23  1  0  0  0  0 
 23 24  2  0  0  0  0 
 23 25  1  0  0  0  0 
 25 26  1  0  0  0  0 
 26 27  1  0  0  0  0 
 21 27  1  0  0  0  0 
 27 28  1  1  0  0  0 
 27 29  1  0  0  0  0 
 18 29  1  0  0  0  0 
 29 30  1  1  0  0  0 
 30 31  1  0  0  0  0 
 31 32  1  0  0  0  0 
 14 32  1  0  0  0  0 
 17 32  1  0  0  0  0 
 32 33  1  1  0  0  0 
M  END
> <SMILES>
CCCCCCCCCCC(=O)O[C@H]1CC[C@H]2[C@@H]3CCC4=CC(=O)CC[C@]4(C)[C@H]3CC[C@]12C

$$$$

  CDK     06141809482D

 24 27  0  0  1  0  0  0  0  0999 V2000
    6.0849    5.2846    0.0000 C   0  0  0  0  0  0  0  0  0  0  0  0
    5.6211    3.8581    0.0000 C   0  0  0  0  0  0  0  0  0  0  0  0
    6.6246    2.7431    0.0000 O   0  0  0  0  0  0  0  0  0  0  0  0
    4.1538    3.5465    0.0000 O   0  0  0  0  0  0  0  0  0  0  0  0
    3.6900    2.1200    0.0000 C   0  0  1  0  0  0  0  0  0  0  0  0
    4.5700    0.9100    0.0000 C   0  0  0  0  0  0  0  0  0  0  0  0
    3.6900   -0.3000    0.0000 C   0  0  0  0  0  0  0  0  0  0  0  0
    2.2700    0.1600    0.0000 C   0  0  1  0  0  0  0  0  0  0  0  0
    0.9700   -0.5900    0.0000 C   0  0  2  0  0  0  0  0  0  0  0  0
    0.9700   -2.0900    0.0000 C   0  0  0  0  0  0  0  0  0  0  0  0
   -0.3300   -2.8400    0.0000 C   0  0  0  0  0  0  0  0  0  0  0  0
   -1.6300   -2.0900    0.0000 C   0  0  1  0  0  0  0  0  0  0  0  0
   -2.9300   -2.8400    0.0000 C   0  0  0  0  0  0  0  0  0  0  0  0
   -4.2300   -2.0900    0.0000 C   0  0  0  0  0  0  0  0  0  0  0  0
   -5.5289   -2.8402    0.0000 O   0  0  0  0  0  0  0  0  0  0  0  0
   -4.2300   -0.5900    0.0000 C   0  0  0  0  0  0  0  0  0  0  0  0
   -2.9300    0.1600    0.0000 C   0  0  0  0  0  0  0  0  0  0  0  0
   -1.6300   -0.5900    0.0000 C   0  0  1  0  0  0  0  0  0  0  0  0
   -1.6300    0.9100    0.0000 C   0  0  0  0  0  0  0  0  0  0  0  0
   -0.3300    0.1600    0.0000 C   0  0  1  0  0  0  0  0  0  0  0  0
   -0.3300    1.6600    0.0000 C   0  0  0  0  0  0  0  0  0  0  0  0
    0.9700    2.4100    0.0000 C   0  0  0  0  0  0  0  0  0  0  0  0
    2.2700    1.6600    0.0000 C   0  0  2  0  0  0  0  0  0  0  0  0
    2.4272    3.1517    0.0000 C   0  0  0  0  0  0  0  0  0  0  0  0
  1  2  1  0  0  0  0 
  2  3  2  0  0  0  0 
  2  4  1  0  0  0  0 
  5  4  1  1  0  0  0 
  5  6  1  0  0  0  0 
  6  7  1  0  0  0  0 
  8  7  1  1  0  0  0 
  8  9  1  0  0  0  0 
  9 10  1  6  0  0  0 
 10 11  1  0  0  0  0 
 12 11  1  1  0  0  0 
 12 13  1  0  0  0  0 
 13 14  1  0  0  0  0 
 14 15  2  0  0  0  0 
 14 16  1  0  0  0  0 
 16 17  1  0  0  0  0 
 17 18  1  0  0  0  0 
 12 18  1  0  0  0  0 
 18 19  1  1  0  0  0 
 18 20  1  0  0  0  0 
  9 20  1  0  0  0  0 
 20 21  1  1  0  0  0 
 21 22  1  0  0  0  0 
 22 23  1  0  0  0  0 
  5 23  1  0  0  0  0 
  8 23  1  0  0  0  0 
 23 24  1  1  0  0  0 
M  END
> <SMILES>
CC(=O)O[C@H]1CC[C@H]2[C@@H]3CC[C@H]4CC(=O)CC[C@]4(C)[C@H]3CC[C@]12C

$$$$

  CDK     06141809482D

 27 30  0  0  1  0  0  0  0  0999 V2000
    4.9099    2.9185    0.0000 H   0  0  0  0  0  0  0  0  0  0  0  0
    3.6100    2.1700    0.0000 C   0  0  1  0  0  0  0  0  0  0  0  0
    2.9984    3.5396    0.0000 O   0  0  0  0  0  0  0  0  0  0  0  0
    4.4900    0.9500    0.0000 C   0  0  0  0  0  0  0  0  0  0  0  0
    3.6100   -0.2600    0.0000 C   0  0  0  0  0  0  0  0  0  0  0  0
    2.1800    0.2000    0.0000 C   0  0  1  0  0  0  0  0  0  0  0  0
    0.9638    1.0779    0.0000 H   0  0  0  0  0  0  0  0  0  0  0  0
    0.8900   -0.5500    0.0000 C   0  0  2  0  0  0  0  0  0  0  0  0
    2.1902   -1.2980    0.0000 H   0  0  0  0  0  0  0  0  0  0  0  0
    0.8900   -2.0500    0.0000 C   0  0  0  0  0  0  0  0  0  0  0  0
   -0.4100   -2.8000    0.0000 C   0  0  0  0  0  0  0  0  0  0  0  0
   -1.7100   -2.0500    0.0000 C   0  0  0  0  0  0  0  0  0  0  0  0
   -3.0100   -2.8000    0.0000 C   0  0  0  0  0  0  0  0  0  0  0  0
   -4.3100   -2.0500    0.0000 C   0  0  0  0  0  0  0  0  0  0  0  0
   -5.6089   -2.8002    0.0000 O   0  0  0  0  0  0  0  0  0  0  0  0
   -6.9081   -2.0504    0.0000 C   0  0  0  0  0  0  0  0  0  0  0  0
   -8.2070   -2.8006    0.0000 C   0  0  0  0  0  0  0  0  0  0  0  0
   -6.9083   -0.5504    0.0000 O   0  0  0  0  0  0  0  0  0  0  0  0
   -4.3100   -0.5500    0.0000 C   0  0  0  0  0  0  0  0  0  0  0  0
   -3.0100    0.2000    0.0000 C   0  0  0  0  0  0  0  0  0  0  0  0
   -1.7100   -0.5500    0.0000 C   0  0  0  0  0  0  0  0  0  0  0  0
   -0.4100    0.2000    0.0000 C   0  0  1  0  0  0  0  0  0  0  0  0
   -1.7089    0.9502    0.0000 H   0  0  0  0  0  0  0  0  0  0  0  0
   -0.4100    1.7000    0.0000 C   0  0  0  0  0  0  0  0  0  0  0  0
    0.8900    2.4500    0.0000 C   0  0  0  0  0  0  0  0  0  0  0  0
    2.1800    1.7000    0.0000 C   0  0  2  0  0  0  0  0  0  0  0  0
    3.1910    0.5919    0.0000 C   0  0  0  0  0  0  0  0  0  0  0  0
  2  1  1  6  0  0  0 
  2  3  1  1  0  0  0 
  2  4  1  0  0  0  0 
  4  5  1  0  0  0  0 
  5  6  1  0  0  0  0 
  6  7  1  6  0  0  0 
  6  8  1  0  0  0  0 
  8  9  1  1  0  0  0 
  8 10  1  0  0  0  0 
 10 11  1  0  0  0  0 
 11 12  1  0  0  0  0 
 12 13  2  0  0  0  0 
 13 14  1  0  0  0  0 
 14 15  1  0  0  0  0 
 15 16  1  0  0  0  0 
 16 17  1  0  0  0  0 
 16 18  2  0  0  0  0 
 14 19  2  0  0  0  0 
 19 20  1  0  0  0  0 
 20 21  2  0  0  0  0 
 12 21  1  0  0  0  0 
 21 22  1  0  0  0  0 
  8 22  1  0  0  0  0 
 22 23  1  6  0  0  0 
 22 24  1  0  0  0  0 
 24 25  1  0  0  0  0 
 25 26  1  0  0  0  0 
  2 26  1  0  0  0  0 
  6 26  1  0  0  0  0 
 26 27  1  1  0  0  0 
M  END
> <SMILES>
[H][C@]1(O)CC[C@@]2([H])[C@]3([H])CCC4=CC(OC(C)=O)=CC=C4[C@@]3([H])CC[C@]12C

$$$$

  CDK     06141809482D

 32 36  0  0  1  0  0  0  0  0999 V2000
    4.9099    2.9185    0.0000 H   0  0  0  0  0  0  0  0  0  0  0  0
    3.6100    2.1700    0.0000 C   0  0  1  0  0  0  0  0  0  0  0  0
    2.9984    3.5396    0.0000 O   0  0  0  0  0  0  0  0  0  0  0  0
    4.4900    0.9500    0.0000 C   0  0  0  0  0  0  0  0  0  0  0  0
    3.6100   -0.2600    0.0000 C   0  0  0  0  0  0  0  0  0  0  0  0
    2.1800    0.2000    0.0000 C   0  0  1  0  0  0  0  0  0  0  0  0
    0.9638    1.0779    0.0000 H   0  0  0  0  0  0  0  0  0  0  0  0
    0.8900   -0.5500    0.0000 C   0  0  2  0  0  0  0  0  0  0  0  0
    2.1902   -1.2980    0.0000 H   0  0  0  0  0  0  0  0  0  0  0  0
    0.8900   -2.0500    0.0000 C   0  0  0  0  0  0  0  0  0  0  0  0
   -0.4100   -2.8000    0.0000 C   0  0  0  0  0  0  0  0  0  0  0  0
   -1.7100   -2.0500    0.0000 C   0  0  0  0  0  0  0  0  0  0  0  0
   -3.0100   -2.8000    0.0000 C   0  0  0  0  0  0  0  0  0  0  0  0
   -4.3100   -2.0500    0.0000 C   0  0  0  0  0  0  0  0  0  0  0  0
   -5.6089   -2.8002    0.0000 O   0  0  0  0  0  0  0  0  0  0  0  0
   -6.9081   -2.0504    0.0000 C   0  0  0  0  0  0  0  0  0  0  0  0
   -6.9083   -0.5504    0.0000 O   0  0  0  0  0  0  0  0  0  0  0  0
   -8.2070   -2.8006    0.0000 C   0  0  0  0  0  0  0  0  0  0  0  0
   -8.2063   -4.3015    0.0000 C   0  0  0  0  0  0  0  0  0  0  0  0
   -9.5052   -5.0517    0.0000 C   0  0  0  0  0  0  0  0  0  0  0  0
  -10.8048   -4.3010    0.0000 C   0  0  0  0  0  0  0  0  0  0  0  0
  -10.8056   -2.8002    0.0000 C   0  0  0  0  0  0  0  0  0  0  0  0
   -9.5066   -2.0500    0.0000 C   0  0  0  0  0  0  0  0  0  0  0  0
   -4.3100   -0.5500    0.0000 C   0  0  0  0  0  0  0  0  0  0  0  0
   -3.0100    0.2000    0.0000 C   0  0  0  0  0  0  0  0  0  0  0  0
   -1.7100   -0.5500    0.0000 C   0  0  0  0  0  0  0  0  0  0  0  0
   -0.4100    0.2000    0.0000 C   0  0  1  0  0  0  0  0  0  0  0  0
   -1.7089    0.9502    0.0000 H   0  0  0  0  0  0  0  0  0  0  0  0
   -0.4100    1.7000    0.0000 C   0  0  0  0  0  0  0  0  0  0  0  0
    0.8900    2.4500    0.0000 C   0  0  0  0  0  0  0  0  0  0  0  0
    2.1800    1.7000    0.0000 C   0  0  2  0  0  0  0  0  0  0  0  0
    3.1910    0.5919    0.0000 C   0  0  0  0  0  0  0  0  0  0  0  0
  2  1  1  6  0  0  0 
  2  3  1  1  0  0  0 
  2  4  1  0  0  0  0 
  4  5  1  0  0  0  0 
  5  6  1  0  0  0  0 
  6  7  1  6  0  0  0 
  6  8  1  0  0  0  0 
  8  9  1  1  0  0  0 
  8 10  1  0  0  0  0 
 10 11  1  0  0  0  0 
 11 12  1  0  0  0  0 
 12 13  2  0  0  0  0 
 13 14  1  0  0  0  0 
 14 15  1  0  0  0  0 
 15 16  1  0  0  0  0 
 16 17  2  0  0  0  0 
 16 18  1  0  0  0  0 
 18 19  2  0  0  0  0 
 19 20  1  0  0  0  0 
 20 21  2  0  0  0  0 
 21 22  1  0  0  0  0 
 22 23  2  0  0  0  0 
 18 23  1  0  0  0  0 
 14 24  2  0  0  0  0 
 24 25  1  0  0  0  0 
 25 26  2  0  0  0  0 
 12 26  1  0  0  0  0 
 26 27  1  0  0  0  0 
  8 27  1  0  0  0  0 
 27 28  1  6  0  0  0 
 27 29  1  0  0  0  0 
 29 30  1  0  0  0  0 
 30 31  1  0  0  0  0 
  2 31  1  0  0  0  0 
  6 31  1  0  0  0  0 
 31 32  1  1  0  0  0 
M  END
> <SMILES>
[H][C@]1(O)CC[C@@]2([H])[C@]3([H])CCC4=CC(OC(=O)C5=CC=CC=C5)=CC=C4[C@@]3([H])CC[C@]12C

$$$$

  CDK     06141809482D

 33 37  0  0  1  0  0  0  0  0999 V2000
    5.1056    2.4802    0.0000 H   0  0  0  0  0  0  0  0  0  0  0  0
    3.8057    1.7317    0.0000 C   0  0  1  0  0  0  0  0  0  0  0  0
    4.6857    0.5117    0.0000 C   0  0  0  0  0  0  0  0  0  0  0  0
    3.8057   -0.6983    0.0000 C   0  0  0  0  0  0  0  0  0  0  0  0
    2.3757   -0.2383    0.0000 C   0  0  1  0  0  0  0  0  0  0  0  0
    1.1595    0.6397    0.0000 H   0  0  0  0  0  0  0  0  0  0  0  0
    1.0857   -0.9883    0.0000 C   0  0  2  0  0  0  0  0  0  0  0  0
    2.3859   -1.7363    0.0000 H   0  0  0  0  0  0  0  0  0  0  0  0
    1.0857   -2.4883    0.0000 C   0  0  0  0  0  0  0  0  0  0  0  0
   -0.2143   -3.2383    0.0000 C   0  0  0  0  0  0  0  0  0  0  0  0
   -1.5143   -2.4883    0.0000 C   0  0  0  0  0  0  0  0  0  0  0  0
   -2.8143   -3.2383    0.0000 C   0  0  0  0  0  0  0  0  0  0  0  0
   -4.1143   -2.4883    0.0000 C   0  0  0  0  0  0  0  0  0  0  0  0
   -5.4132   -3.2385    0.0000 O   0  0  0  0  0  0  0  0  0  0  0  0
   -4.1143   -0.9883    0.0000 C   0  0  0  0  0  0  0  0  0  0  0  0
   -2.8143   -0.2383    0.0000 C   0  0  0  0  0  0  0  0  0  0  0  0
   -1.5143   -0.9883    0.0000 C   0  0  0  0  0  0  0  0  0  0  0  0
   -0.2143   -0.2383    0.0000 C   0  0  1  0  0  0  0  0  0  0  0  0
   -1.5132    0.5119    0.0000 H   0  0  0  0  0  0  0  0  0  0  0  0
   -0.2143    1.2617    0.0000 C   0  0  0  0  0  0  0  0  0  0  0  0
    1.0857    2.0117    0.0000 C   0  0  0  0  0  0  0  0  0  0  0  0
    2.3757    1.2617    0.0000 C   0  0  2  0  0  0  0  0  0  0  0  0
    2.5322    2.7535    0.0000 C   0  0  0  0  0  0  0  0  0  0  0  0
    2.9984    3.5396    0.0000 O   0  0  0  0  0  0  0  0  0  0  0  0
    3.8787    4.7541    0.0000 C   0  0  0  0  0  0  0  0  0  0  0  0
    3.2671    6.1238    0.0000 O   0  0  0  0  0  0  0  0  0  0  0  0
    5.3706    4.5990    0.0000 C   0  0  0  0  0  0  0  0  0  0  0  0
    6.2510    5.8135    0.0000 C   0  0  0  0  0  0  0  0  0  0  0  0
    7.7429    5.6584    0.0000 C   0  0  0  0  0  0  0  0  0  0  0  0
    8.4946    4.3621    0.0000 C   0  0  0  0  0  0  0  0  0  0  0  0
    9.9774    4.6778    0.0000 C   0  0  0  0  0  0  0  0  0  0  0  0
   10.1045    6.1685    0.0000 C   0  0  0  0  0  0  0  0  0  0  0  0
    8.7393    6.7657    0.0000 C   0  0  0  0  0  0  0  0  0  0  0  0
  2  1  1  6  0  0  0 
  2  3  1  0  0  0  0 
  3  4  1  0  0  0  0 
  4  5  1  0  0  0  0 
  5  6  1  6  0  0  0 
  5  7  1  0  0  0  0 
  7  8  1  1  0  0  0 
  7  9  1  0  0  0  0 
  9 10  1  0  0  0  0 
 10 11  1  0  0  0  0 
 11 12  2  0  0  0  0 
 12 13  1  0  0  0  0 
 13 14  1  0  0  0  0 
 13 15  2  0  0  0  0 
 15 16  1  0  0  0  0 
 16 17  2  0  0  0  0 
 11 17  1  0  0  0  0 
 17 18  1  0  0  0  0 
  7 18  1  0  0  0  0 
 18 19  1  6  0  0  0 
 18 20  1  0  0  0  0 
 20 21  1  0  0  0  0 
 21 22  1  0  0  0  0 
  2 22  1  0  0  0  0 
  5 22  1  0  0  0  0 
 22 23  1  1  0  0  0 
  2 24  1  1  0  0  0 
 24 25  1  0  0  0  0 
 25 26  2  0  0  0  0 
 25 27  1  0  0  0  0 
 27 28  1  0  0  0  0 
 28 29  1  0  0  0  0 
 29 30  1  0  0  0  0 
 30 31  1  0  0  0  0 
 31 32  1  0  0  0  0 
 32 33  1  0  0  0  0 
 29 33  1  0  0  0  0 
M  END
> <SMILES>
[H][C@@]1(CC[C@@]2([H])[C@]3([H])CCC4=CC(O)=CC=C4[C@@]3([H])CC[C@]12C)OC(=O)CCC1CCCC1

$$$$

  CDK     06141809482D

 36 39  0  0  1  0  0  0  0  0999 V2000
   11.3331    9.1236    0.0000 C   0  0  0  0  0  0  0  0  0  0  0  0
    9.8659    8.8118    0.0000 C   0  0  0  0  0  0  0  0  0  0  0  0
    9.4024    7.3852    0.0000 C   0  0  0  0  0  0  0  0  0  0  0  0
    7.9351    7.0734    0.0000 C   0  0  0  0  0  0  0  0  0  0  0  0
    7.4716    5.6468    0.0000 C   0  0  0  0  0  0  0  0  0  0  0  0
    6.0043    5.3350    0.0000 C   0  0  0  0  0  0  0  0  0  0  0  0
    5.5408    3.9084    0.0000 C   0  0  0  0  0  0  0  0  0  0  0  0
    6.5445    2.7937    0.0000 O   0  0  0  0  0  0  0  0  0  0  0  0
    4.0736    3.5966    0.0000 O   0  0  0  0  0  0  0  0  0  0  0  0
    3.6100    2.1700    0.0000 C   0  0  1  0  0  0  0  0  0  0  0  0
    4.4900    0.9500    0.0000 C   0  0  0  0  0  0  0  0  0  0  0  0
    3.6100   -0.2600    0.0000 C   0  0  0  0  0  0  0  0  0  0  0  0
    2.1800    0.2000    0.0000 C   0  0  1  0  0  0  0  0  0  0  0  0
    0.8900   -0.5500    0.0000 C   0  0  2  0  0  0  0  0  0  0  0  0
    0.8900   -2.0500    0.0000 C   0  0  0  0  0  0  0  0  0  0  0  0
   -0.4100   -2.8000    0.0000 C   0  0  0  0  0  0  0  0  0  0  0  0
   -1.7100   -2.0500    0.0000 C   0  0  0  0  0  0  0  0  0  0  0  0
   -3.0100   -2.8000    0.0000 C   0  0  0  0  0  0  0  0  0  0  0  0
   -4.3100   -2.0500    0.0000 C   0  0  0  0  0  0  0  0  0  0  0  0
   -5.6089   -2.8002    0.0000 O   0  0  0  0  0  0  0  0  0  0  0  0
   -5.6087   -4.3002    0.0000 C   0  0  0  0  0  0  0  0  0  0  0  0
   -4.3095   -5.0500    0.0000 O   0  0  0  0  0  0  0  0  0  0  0  0
   -6.9076   -5.0504    0.0000 C   0  0  0  0  0  0  0  0  0  0  0  0
   -6.9074   -6.5504    0.0000 C   0  0  0  0  0  0  0  0  0  0  0  0
   -8.2063   -7.3006    0.0000 C   0  0  0  0  0  0  0  0  0  0  0  0
   -8.2060   -8.8006    0.0000 C   0  0  0  0  0  0  0  0  0  0  0  0
   -9.5050   -9.5508    0.0000 C   0  0  0  0  0  0  0  0  0  0  0  0
   -9.5047  -11.0508    0.0000 C   0  0  0  0  0  0  0  0  0  0  0  0
   -4.3100   -0.5500    0.0000 C   0  0  0  0  0  0  0  0  0  0  0  0
   -3.0100    0.2000    0.0000 C   0  0  0  0  0  0  0  0  0  0  0  0
   -1.7100   -0.5500    0.0000 C   0  0  0  0  0  0  0  0  0  0  0  0
   -0.4100    0.2000    0.0000 C   0  0  1  0  0  0  0  0  0  0  0  0
   -0.4100    1.7000    0.0000 C   0  0  0  0  0  0  0  0  0  0  0  0
    0.8900    2.4500    0.0000 C   0  0  0  0  0  0  0  0  0  0  0  0
    2.1800    1.7000    0.0000 C   0  0  2  0  0  0  0  0  0  0  0  0
    2.3365    3.1918    0.0000 C   0  0  0  0  0  0  0  0  0  0  0  0
  1  2  1  0  0  0  0 
  2  3  1  0  0  0  0 
  3  4  1  0  0  0  0 
  4  5  1  0  0  0  0 
  5  6  1  0  0  0  0 
  6  7  1  0  0  0  0 
  7  8  2  0  0  0  0 
  7  9  1  0  0  0  0 
 10  9  1  1  0  0  0 
 10 11  1  0  0  0  0 
 11 12  1  0  0  0  0 
 13 12  1  1  0  0  0 
 13 14  1  0  0  0  0 
 14 15  1  6  0  0  0 
 15 16  1  0  0  0  0 
 16 17  1  0  0  0  0 
 17 18  2  0  0  0  0 
 18 19  1  0  0  0  0 
 19 20  1  0  0  0  0 
 20 21  1  0  0  0  0 
 21 22  2  0  0  0  0 
 21 23  1  0  0  0  0 
 23 24  1  0  0  0  0 
 24 25  1  0  0  0  0 
 25 26  1  0  0  0  0 
 26 27  1  0  0  0  0 
 27 28  1  0  0  0  0 
 19 29  2  0  0  0  0 
 29 30  1  0  0  0  0 
 30 31  2  0  0  0  0 
 17 31  1  0  0  0  0 
 31 32  1  0  0  0  0 
 14 32  1  0  0  0  0 
 32 33  1  1  0  0  0 
 33 34  1  0  0  0  0 
 34 35  1  0  0  0  0 
 10 35  1  0  0  0  0 
 13 35  1  0  0  0  0 
 35 36  1  1  0  0  0 
M  END
> <SMILES>
CCCCCCC(=O)O[C@H]1CC[C@H]2[C@@H]3CCC4=CC(OC(=O)CCCCCC)=CC=C4[C@H]3CC[C@]12C

$$$$

  CDK     06141809482D

 29 32  0  0  1  0  0  0  0  0999 V2000
    0.9638    1.0779    0.0000 H   0  0  0  0  0  0  0  0  0  0  0  0
    2.1800    0.2000    0.0000 C   0  0  2  0  0  0  0  0  0  0  0  0
    3.6100   -0.2600    0.0000 C   0  0  0  0  0  0  0  0  0  0  0  0
    4.4900    0.9500    0.0000 C   0  0  0  0  0  0  0  0  0  0  0  0
    3.6100    2.1700    0.0000 C   0  0  2  0  0  0  0  0  0  0  0  0
    4.0736    3.5966    0.0000 O   0  0  0  0  0  0  0  0  0  0  0  0
    5.5408    3.9084    0.0000 C   0  0  0  0  0  0  0  0  0  0  0  0
    6.5445    2.7937    0.0000 O   0  0  0  0  0  0  0  0  0  0  0  0
    6.0043    5.3350    0.0000 C   0  0  0  0  0  0  0  0  0  0  0  0
    7.4716    5.6468    0.0000 C   0  0  0  0  0  0  0  0  0  0  0  0
    7.9351    7.0734    0.0000 C   0  0  0  0  0  0  0  0  0  0  0  0
    9.4024    7.3852    0.0000 C   0  0  0  0  0  0  0  0  0  0  0  0
    2.1800    1.7000    0.0000 C   0  0  2  0  0  0  0  0  0  0  0  0
    2.3365    3.1918    0.0000 C   0  0  0  0  0  0  0  0  0  0  0  0
    0.8900    2.4500    0.0000 C   0  0  0  0  0  0  0  0  0  0  0  0
   -0.4100    1.7000    0.0000 C   0  0  0  0  0  0  0  0  0  0  0  0
   -0.4100    0.2000    0.0000 C   0  0  2  0  0  0  0  0  0  0  0  0
   -1.7089    0.9502    0.0000 H   0  0  0  0  0  0  0  0  0  0  0  0
   -1.7100   -0.5500    0.0000 C   0  0  0  0  0  0  0  0  0  0  0  0
   -1.7100   -2.0500    0.0000 C   0  0  0  0  0  0  0  0  0  0  0  0
   -0.4100   -2.8000    0.0000 C   0  0  0  0  0  0  0  0  0  0  0  0
    0.8900   -2.0500    0.0000 C   0  0  0  0  0  0  0  0  0  0  0  0
    0.8900   -0.5500    0.0000 C   0  0  1  0  0  0  0  0  0  0  0  0
    2.1902   -1.2980    0.0000 H   0  0  0  0  0  0  0  0  0  0  0  0
   -3.0100   -2.8000    0.0000 C   0  0  0  0  0  0  0  0  0  0  0  0
   -4.3100   -2.0500    0.0000 C   0  0  0  0  0  0  0  0  0  0  0  0
   -5.6089   -2.8002    0.0000 O   0  0  0  0  0  0  0  0  0  0  0  0
   -4.3100   -0.5500    0.0000 C   0  0  0  0  0  0  0  0  0  0  0  0
   -3.0100    0.2000    0.0000 C   0  0  0  0  0  0  0  0  0  0  0  0
  2  1  1  6  0  0  0 
  2  3  1  0  0  0  0 
  3  4  1  0  0  0  0 
  4  5  1  0  0  0  0 
  5  6  1  1  0  0  0 
  6  7  1  0  0  0  0 
  7  8  2  0  0  0  0 
  7  9  1  0  0  0  0 
  9 10  1  0  0  0  0 
 10 11  1  0  0  0  0 
 11 12  1  0  0  0  0 
  5 13  1  0  0  0  0 
  2 13  1  0  0  0  0 
 13 14  1  1  0  0  0 
 13 15  1  0  0  0  0 
 15 16  1  0  0  0  0 
 16 17  1  0  0  0  0 
 17 18  1  6  0  0  0 
 17 19  1  0  0  0  0 
 19 20  2  0  0  0  0 
 20 21  1  0  0  0  0 
 21 22  1  0  0  0  0 
 22 23  1  0  0  0  0 
  2 23  1  0  0  0  0 
 17 23  1  0  0  0  0 
 23 24  1  1  0  0  0 
 20 25  1  0  0  0  0 
 25 26  2  0  0  0  0 
 26 27  1  0  0  0  0 
 26 28  1  0  0  0  0 
 28 29  2  0  0  0  0 
 19 29  1  0  0  0  0 
M  END
> <SMILES>
[H][C@@]12CC[C@H](OC(=O)CCCC)[C@@]1(C)CC[C@]1([H])C3=C(CC[C@@]21[H])C=C(O)C=C3

$$$$
